Circuit: * C:\Users\user\Desktop\LT SPICE\Draft4.asc

Direct Newton iteration for .op point succeeded.

Date: Mon Aug 21 05:46:24 2023
Total elapsed time: 0.056 seconds.

tnom = 27
temp = 27
method = modified trap
totiter = 2210
traniter = 2202
tranpoints = 1088
accept = 1084
rejected = 4
matrix size = 12
fillins = 0
solver = Normal
Matrix Compiler1: 392 bytes object code size  0.1/0.0/[0.0]
Matrix Compiler2: 900 bytes object code size  0.1/0.1/[0.1]

