Circuit: * C:\Users\user\Desktop\Draft4.asc

Limiting rise time of source v2 to 5e-006
Limiting fall time of source v2 to 5e-006
Direct Newton iteration for .op point succeeded.
Changing Tseed to 1.95312e-011
Changing Tseed to 1.95312e-013
Changing Tseed to 1.95312e-010
Heightened Def Con from 1.98364e-010 to 3.32336e-009
Heightened Def Con from 4.09284e-009 to 7.09284e-009
Heightened Def Con from 1.31962e-007 +to 1.49087e-007
Heightened Def Con from 1.50159e-007 to 1.54159e-007
Heightened Def Con from 1.72904e-006 to 1.73016e-006
Heightened Def Con from 1.81346e-006 to 1.81546e-006
Heightened Def Con from 1.91617e-006 +to 1.91817e-006
Heightened Def Con from 1.9305e-006 to 1.9325e-006
Heightened Def Con from 5e-006 to 5.00967e-006
Heightened Def Con from 5.0148e-006 to 5.01993e-006
Heightened Def Con from 5.02019e-006 to 5.02032e-006
Heightened Def Con from 5.02037e-006 to 5.02237e-006
Heightened Def Con from 5.02244e-006 to 5.02245e-006
Heightened Def Con from 5.02246e-006 to 5.02251e-006
Heightened Def Con from 5.0226e-006 +to 5.02373e-006
Heightened Def Con from 5.02378e-006 to 5.02479e-006
Heightened Def Con from 5.0248e-006 to 5.02493e-006
Heightened Def Con from 5.02495e-006 +to 5.02595e-006
Heightened Def Con from 5.02598e-006 ++to 5.026e-006
Heightened Def Con from 5.02614e-006 to 5.02616e-006
Heightened Def Con from 5.02619e-006 to 5.02619e-006
Heightened Def Con from 5.02625e-006 to 5.02625e-006
Heightened Def Con from 5.02725e-006 to 5.02725e-006
Heightened Def Con from 5.02731e-006 to 5.02732e-006
Heightened Def Con from 5.02732e-006 to 5.02732e-006
Heightened Def Con from 5.02733e-006 to 5.02735e-006
Heightened Def Con from 5.02737e-006 +++to 5.03039e-006
Heightened Def Con from 5.03223e-006 to 5.03223e-006
Heightened Def Con from 5.03226e-006 to 5.03226e-006
Heightened Def Con from 5.03232e-006 to 5.03233e-006
Heightened Def Con from 5.03234e-006 to 5.03234e-006
Heightened Def Con from 5.0324e-006 to 5.03241e-006
Heightened Def Con from 5.03246e-006 to 5.0326e-006
Heightened Def Con from 5.0326e-006 +to 5.03273e-006
Heightened Def Con from 5.03276e-006 +to 5.03377e-006
Heightened Def Con from 5.03389e-006 to 5.0339e-006
Heightened Def Con from 5.03402e-006 to 5.03402e-006
Heightened Def Con from 5.03408e-006 to 5.03408e-006
Heightened Def Con from 5.03408e-006 to 5.03408e-006
Heightened Def Con from 5.03411e-006 to 5.03411e-006
Heightened Def Con from 5.03411e-006 to 5.03413e-006
Heightened Def Con from 5.03414e-006 to 5.03414e-006
Heightened Def Con from 5.03417e-006 to 5.03419e-006
Heightened Def Con from 5.03422e-006 to 5.03422e-006
Heightened Def Con from 5.03423e-006 to 5.03423e-006
Heightened Def Con from 5.03424e-006 to 5.03425e-006
Heightened Def Con from 5.03427e-006 to 5.03427e-006
Heightened Def Con from 5.03428e-006 to 5.0343e-006
Heightened Def Con from 5.03436e-006 to 5.03538e-006
Heightened Def Con from 5.03538e-006 to 5.03538e-006
Heightened Def Con from 5.03538e-006 +to 5.03538e-006
Heightened Def Con from 5.03538e-006 +++to 5.03539e-006
Heightened Def Con from 5.03539e-006 to 5.03541e-006
Heightened Def Con from 5.03541e-006 to 5.03541e-006
Heightened Def Con from 5.03553e-006 to 5.03553e-006
Heightened Def Con from 5.03565e-006 to 5.03566e-006
Heightened Def Con from 5.03567e-006 ++to 5.03668e-006
Heightened Def Con from 5.03672e-006 to 5.03672e-006
Heightened Def Con from 5.03673e-006 +to 5.03673e-006
Heightened Def Con from 5.03676e-006 +to 5.03677e-006
Heightened Def Con from 5.03686e-006 to 5.03688e-006
Heightened Def Con from 5.03689e-006 +to 5.03691e-006
Heightened Def Con from 5.03712e-006 to 5.03714e-006
Heightened Def Con from 5.03714e-006 to 5.03816e-006
Heightened Def Con from 5.03819e-006 +to 5.03821e-006
Heightened Def Con from 5.03821e-006 to 5.03821e-006
Heightened Def Con from 5.03822e-006 +to 5.03822e-006
Heightened Def Con from 5.03823e-006 +to 5.03823e-006
Heightened Def Con from 5.03872e-006 to 5.03874e-006
Heightened Def Con from 5.03874e-006 to 5.03875e-006
Heightened Def Con from 5.03875e-006 to 5.03877e-006
Heightened Def Con from 5.03898e-006 to 5.039e-006
Heightened Def Con from 5.03903e-006 to 5.03905e-006
Heightened Def Con from 5.03905e-006 to 5.03905e-006
Heightened Def Con from 5.03908e-006 to 5.03909e-006
Heightened Def Con from 5.03913e-006 to 5.03913e-006
Heightened Def Con from 5.03914e-006 to 5.03914e-006
Heightened Def Con from 5.03916e-006 to 5.03916e-006
Heightened Def Con from 5.03917e-006 to 5.03918e-006
Heightened Def Con from 5.03919e-006 to 5.03919e-006
Heightened Def Con from 5.03944e-006 to 5.03944e-006
Heightened Def Con from 5.03956e-006 to 5.03956e-006
Heightened Def Con from 5.04156e-006 to 5.04157e-006
Heightened Def Con from 5.04158e-006 to 5.04158e-006
Heightened Def Con from 5.04158e-006 to 5.0416e-006
Heightened Def Con from 5.04163e-006 to 5.04163e-006
Heightened Def Con from 5.04166e-006 to 5.04166e-006
Heightened Def Con from 5.04169e-006 to 5.04169e-006
Heightened Def Con from 5.0417e-006 to 5.04171e-006
Heightened Def Con from 5.04176e-006 to 5.04177e-006
Heightened Def Con from 5.04183e-006 to 5.04184e-006
Heightened Def Con from 5.04185e-006 to 5.04186e-006
Heightened Def Con from 5.04186e-006 to 5.04186e-006
Heightened Def Con from 5.04187e-006 to 5.04187e-006
Heightened Def Con from 5.04188e-006 to 5.04188e-006
Heightened Def Con from 5.04191e-006 to 5.04192e-006
Heightened Def Con from 5.04193e-006 to 5.04194e-006
Heightened Def Con from 5.04194e-006 +to 5.04196e-006
Heightened Def Con from 5.04196e-006 to 5.04197e-006
Heightened Def Con from 5.04202e-006 to 5.04204e-006
Heightened Def Con from 5.04205e-006 to 5.04205e-006
Heightened Def Con from 5.04217e-006 to 5.04218e-006
Heightened Def Con from 5.04218e-006 to 5.0422e-006
Heightened Def Con from 5.04225e-006 +to 5.04226e-006
Heightened Def Con from 5.04228e-006 to 5.04229e-006
Heightened Def Con from 5.04253e-006 to 5.04253e-006
Heightened Def Con from 5.04254e-006 to 5.04255e-006
Heightened Def Con from 5.04257e-006 to 5.04258e-006
Heightened Def Con from 5.04258e-006 +to 5.04258e-006
Heightened Def Con from 5.0426e-006 to 5.0426e-006
Heightened Def Con from 5.0426e-006 +to 5.04261e-006
Heightened Def Con from 5.04261e-006 to 5.04261e-006
Heightened Def Con from 5.04262e-006 to 5.04262e-006
Heightened Def Con from 5.04263e-006 to 5.04263e-006
Heightened Def Con from 5.04265e-006 to 5.04266e-006
Heightened Def Con from 5.04366e-006 to 5.04366e-006
Heightened Def Con from 5.04372e-006 +to 5.04374e-006
Heightened Def Con from 5.04375e-006 to 5.04375e-006
Heightened Def Con from 5.04378e-006 to 5.04378e-006
Heightened Def Con from 5.04379e-006 +to 5.04379e-006
Heightened Def Con from 5.04381e-006 +to 5.04382e-006
Heightened Def Con from 5.04394e-006 to 5.04394e-006
Heightened Def Con from 5.04401e-006 to 5.04401e-006
Heightened Def Con from 5.0445e-006 to 5.04463e-006
Heightened Def Con from 5.04463e-006 to 5.04463e-006
Heightened Def Con from 5.04463e-006 +to 5.04463e-006
Heightened Def Con from 5.04466e-006 to 5.04466e-006
Heightened Def Con from 5.04491e-006 to 5.04491e-006
Heightened Def Con from 1.76186e-005 to 1.76186e-005
Heightened Def Con from 1.76186e-005 +to 1.76186e-005
Heightened Def Con from 1.76186e-005 ++to 1.76186e-005
Heightened Def Con from 1.76186e-005 to 1.76186e-005
Heightened Def Con from 1.76187e-005 to 1.76187e-005
Heightened Def Con from 1.76187e-005 +to 1.76187e-005
Heightened Def Con from 1.76187e-005 to 1.76187e-005
Heightened Def Con from 1.76187e-005 to 1.76187e-005
Heightened Def Con from 1.76187e-005 to 1.76187e-005
Heightened Def Con from 1.76187e-005 to 1.76187e-005
Heightened Def Con from 1.76187e-005 to 1.76187e-005
Heightened Def Con from 1.76187e-005 to 1.76187e-005
Heightened Def Con from 1.76187e-005 to 1.76187e-005
Heightened Def Con from 1.76187e-005 +to 1.76187e-005
Heightened Def Con from 1.76187e-005 to 1.76188e-005
Heightened Def Con from 1.76188e-005 to 1.76188e-005
Heightened Def Con from 1.76188e-005 +to 1.76198e-005
Heightened Def Con from 1.76198e-005 to 1.76198e-005
Heightened Def Con from 1.76198e-005 to 1.76198e-005
Heightened Def Con from 1.76198e-005 to 1.76198e-005
Heightened Def Con from 1.76198e-005 +to 1.76198e-005
Heightened Def Con from 1.76198e-005 ++to 1.76198e-005
Heightened Def Con from 1.76198e-005 to 1.76198e-005
Heightened Def Con from 1.76198e-005 to 1.76198e-005
Heightened Def Con from 1.76198e-005 +to 1.76198e-005
Heightened Def Con from 1.76199e-005 to 1.76199e-005
Heightened Def Con from 1.76199e-005 to 1.76199e-005
Heightened Def Con from 1.76199e-005 to 1.76199e-005
Heightened Def Con from 1.76199e-005 +to 1.76209e-005
Heightened Def Con from 1.76209e-005 to 1.76209e-005
Heightened Def Con from 1.76209e-005 to 1.76209e-005
Heightened Def Con from 1.76209e-005 +to 1.76209e-005
Heightened Def Con from 1.76209e-005 to 1.76209e-005
Heightened Def Con from 1.76209e-005 to 1.76209e-005
Heightened Def Con from 1.76209e-005 to 1.76209e-005
Heightened Def Con from 1.76209e-005 to 1.76209e-005
Heightened Def Con from 1.76209e-005 to 1.76209e-005
Heightened Def Con from 1.76209e-005 to 1.76209e-005
Heightened Def Con from 1.76209e-005 ++to 1.76209e-005
Heightened Def Con from 1.76209e-005 to 1.76209e-005
Heightened Def Con from 1.76209e-005 to 1.76209e-005
Heightened Def Con from 1.76209e-005 to 1.76209e-005
Heightened Def Con from 1.76209e-005 to 1.76209e-005
Heightened Def Con from 1.7621e-005 to 1.7621e-005
Heightened Def Con from 1.7621e-005 +to 1.7621e-005
Heightened Def Con from 1.7621e-005 to 1.7621e-005
Heightened Def Con from 1.7621e-005 to 1.7621e-005
Heightened Def Con from 1.7621e-005 +to 1.7621e-005
Heightened Def Con from 1.7621e-005 to 1.7621e-005
Heightened Def Con from 1.7621e-005 to 1.7621e-005
Heightened Def Con from 1.7621e-005 to 1.7621e-005
Heightened Def Con from 1.7621e-005 to 1.7621e-005
Heightened Def Con from 1.7621e-005 to 1.7621e-005
Heightened Def Con from 1.7621e-005 +to 1.76211e-005
Heightened Def Con from 1.76211e-005 to 1.76211e-005
Heightened Def Con from 1.76211e-005 to 1.76211e-005
Heightened Def Con from 1.76211e-005 +to 1.76211e-005
Heightened Def Con from 1.76211e-005 to 1.76211e-005
Heightened Def Con from 1.76211e-005 +to 1.76211e-005
Heightened Def Con from 1.76211e-005 to 1.76211e-005
Heightened Def Con from 1.76211e-005 to 1.76211e-005
Heightened Def Con from 1.76211e-005 to 1.76211e-005
Heightened Def Con from 1.76211e-005 +to 1.76211e-005
Heightened Def Con from 1.76211e-005 +to 1.76221e-005
Heightened Def Con from 1.76222e-005 to 1.76222e-005
Heightened Def Con from 1.76222e-005 to 1.76222e-005
Heightened Def Con from 1.76222e-005 to 1.76222e-005
Heightened Def Con from 1.76222e-005 +to 1.76222e-005
Heightened Def Con from 1.76225e-005 +to 1.76225e-005
Heightened Def Con from 1.76226e-005 to 1.76226e-005
Heightened Def Con from 1.76226e-005 to 1.76226e-005
Heightened Def Con from 1.76226e-005 +to 1.76226e-005
Heightened Def Con from 1.76226e-005 to 1.76226e-005
Heightened Def Con from 1.76226e-005 to 1.76226e-005
Heightened Def Con from 1.76226e-005 ++to 1.76226e-005
Heightened Def Con from 1.76226e-005 to 1.76226e-005
Heightened Def Con from 1.76227e-005 to 1.76227e-005
Heightened Def Con from 1.76227e-005 to 1.76227e-005
Heightened Def Con from 1.76227e-005 to 1.76227e-005
Heightened Def Con from 1.76227e-005 to 1.76227e-005
Heightened Def Con from 1.76227e-005 +to 1.76227e-005
Heightened Def Con from 1.76227e-005 to 1.76227e-005
Heightened Def Con from 1.76227e-005 to 1.76227e-005
Heightened Def Con from 1.76227e-005 +to 1.76227e-005
Heightened Def Con from 1.76228e-005 to 1.76228e-005
Heightened Def Con from 1.76228e-005 to 1.76228e-005
Heightened Def Con from 1.76228e-005 to 1.76228e-005
Heightened Def Con from 1.76228e-005 to 1.76228e-005
Heightened Def Con from 1.76228e-005 +to 1.76228e-005
Heightened Def Con from 1.76228e-005 to 1.76228e-005
Heightened Def Con from 1.76228e-005 +to 1.76228e-005
Heightened Def Con from 1.76229e-005 to 1.76229e-005
Heightened Def Con from 1.76229e-005 to 1.76229e-005
Heightened Def Con from 1.76229e-005 to 1.76229e-005
Heightened Def Con from 1.76229e-005 to 1.76229e-005
Heightened Def Con from 1.76229e-005 +to 1.76229e-005
Heightened Def Con from 1.76229e-005 to 1.76239e-005
Heightened Def Con from 1.76239e-005 to 1.7624e-005
Heightened Def Con from 1.7624e-005 to 1.7624e-005
Heightened Def Con from 1.7624e-005 to 1.7624e-005
Heightened Def Con from 1.7624e-005 +to 1.7624e-005
Heightened Def Con from 1.7624e-005 ++to 1.7624e-005
Heightened Def Con from 1.7624e-005 to 1.7624e-005
Heightened Def Con from 1.7624e-005 to 1.7624e-005
Heightened Def Con from 1.7624e-005 to 1.7624e-005
Heightened Def Con from 1.7624e-005 to 1.76242e-005
Heightened Def Con from 1.76242e-005 to 1.76242e-005
Heightened Def Con from 1.76242e-005 to 1.76242e-005
Heightened Def Con from 1.76242e-005 to 1.76242e-005
Heightened Def Con from 1.76242e-005 +to 1.76242e-005
Heightened Def Con from 1.76242e-005 +to 1.76242e-005
Heightened Def Con from 1.76242e-005 to 1.76242e-005
Heightened Def Con from 1.76242e-005 +to 1.76243e-005
Heightened Def Con from 1.76243e-005 to 1.76243e-005
Heightened Def Con from 1.76243e-005 to 1.76243e-005
Heightened Def Con from 1.76243e-005 to 1.76243e-005
Heightened Def Con from 1.76243e-005 to 1.76243e-005
Heightened Def Con from 1.76243e-005 to 1.76243e-005
Heightened Def Con from 1.76243e-005 to 1.76243e-005
Heightened Def Con from 1.76243e-005 to 1.76243e-005
Heightened Def Con from 1.76243e-005 to 1.76243e-005
Heightened Def Con from 1.76243e-005 to 1.76243e-005
Heightened Def Con from 1.76243e-005 +to 1.76243e-005
Heightened Def Con from 1.76243e-005 ++to 1.76243e-005
Heightened Def Con from 1.76243e-005 to 1.76243e-005
Heightened Def Con from 1.76243e-005 +to 1.76254e-005
Heightened Def Con from 1.76254e-005 to 1.76254e-005
Heightened Def Con from 1.76254e-005 to 1.76254e-005
Heightened Def Con from 1.76254e-005 +to 1.76254e-005
Heightened Def Con from 1.76254e-005 to 1.76254e-005
Heightened Def Con from 1.76254e-005 to 1.76254e-005
Heightened Def Con from 1.76254e-005 to 1.76254e-005
Heightened Def Con from 1.76254e-005 +to 1.76255e-005
Heightened Def Con from 1.76255e-005 to 1.76255e-005
Heightened Def Con from 1.76255e-005 to 1.76255e-005
Heightened Def Con from 1.76256e-005 +to 1.76256e-005
Heightened Def Con from 1.76256e-005 to 1.76256e-005
Heightened Def Con from 1.76256e-005 to 1.76256e-005
Heightened Def Con from 1.76256e-005 to 1.76256e-005
Heightened Def Con from 1.76256e-005 +to 1.76256e-005
Heightened Def Con from 1.76256e-005 to 1.76256e-005
Heightened Def Con from 1.76256e-005 to 1.76256e-005
Heightened Def Con from 1.76256e-005 +to 1.76257e-005
Heightened Def Con from 1.76257e-005 to 1.76257e-005
Heightened Def Con from 1.76258e-005 +to 1.76258e-005
Heightened Def Con from 1.76258e-005 to 1.76258e-005
Heightened Def Con from 1.76258e-005 +to 1.76258e-005
Heightened Def Con from 1.76258e-005 to 1.76258e-005
Heightened Def Con from 1.76258e-005 to 1.76258e-005
Heightened Def Con from 1.76258e-005 +to 1.76258e-005
Heightened Def Con from 1.76258e-005 to 1.76258e-005
Heightened Def Con from 1.76259e-005 +to 1.76269e-005
Heightened Def Con from 1.76269e-005 +to 1.76269e-005
Heightened Def Con from 1.76269e-005 to 1.76269e-005
Heightened Def Con from 1.76269e-005 to 1.76269e-005
Heightened Def Con from 1.76269e-005 +to 1.76269e-005
Heightened Def Con from 1.76269e-005 to 1.76269e-005
Heightened Def Con from 1.76269e-005 +to 1.76269e-005
Heightened Def Con from 1.76269e-005 to 1.76271e-005
Heightened Def Con from 1.76271e-005 +to 1.76271e-005
Heightened Def Con from 1.76271e-005 +to 1.76271e-005
Heightened Def Con from 1.76271e-005 to 1.76271e-005
Heightened Def Con from 1.76271e-005 +to 1.76271e-005
Heightened Def Con from 1.76271e-005 +to 1.76271e-005
Heightened Def Con from 1.76271e-005 +to 1.76271e-005
Heightened Def Con from 1.76271e-005 to 1.76271e-005
Heightened Def Con from 1.76271e-005 to 1.76271e-005
Heightened Def Con from 1.76271e-005 ++to 1.76281e-005
Heightened Def Con from 1.76281e-005 +to 1.76291e-005
Heightened Def Con from 1.76291e-005 to 1.76291e-005
Heightened Def Con from 1.76291e-005 to 1.76291e-005
Heightened Def Con from 1.76291e-005 to 1.76291e-005
Heightened Def Con from 1.76292e-005 to 1.76292e-005
Heightened Def Con from 1.76292e-005 +to 1.76292e-005
Heightened Def Con from 1.76292e-005 to 1.76292e-005
Heightened Def Con from 1.76292e-005 to 1.76292e-005
Heightened Def Con from 1.76292e-005 to 1.76292e-005
Heightened Def Con from 1.76292e-005 to 1.76292e-005
Heightened Def Con from 1.76292e-005 to 1.76292e-005
Heightened Def Con from 1.76293e-005 to 1.76293e-005
Heightened Def Con from 1.76293e-005 to 1.76293e-005
Heightened Def Con from 1.76293e-005 +to 1.76293e-005
Heightened Def Con from 1.76293e-005 to 1.76293e-005
Heightened Def Con from 1.76293e-005 to 1.76293e-005
Heightened Def Con from 1.76293e-005 +to 1.76293e-005
Heightened Def Con from 1.76293e-005 to 1.76293e-005
Heightened Def Con from 1.76293e-005 to 1.76293e-005
Heightened Def Con from 1.76293e-005 to 1.76293e-005
Heightened Def Con from 1.76293e-005 +to 1.76303e-005
Heightened Def Con from 1.76303e-005 +to 1.76303e-005
Heightened Def Con from 1.76304e-005 to 1.76304e-005
Heightened Def Con from 1.76304e-005 +++to 1.76304e-005
Heightened Def Con from 1.76304e-005 to 1.76304e-005
Heightened Def Con from 1.76304e-005 +to 1.76304e-005
Heightened Def Con from 1.76304e-005 to 1.76304e-005
Heightened Def Con from 1.76304e-005 +to 1.76305e-005
Heightened Def Con from 1.76305e-005 to 1.76305e-005
Heightened Def Con from 1.76305e-005 +to 1.76305e-005
Heightened Def Con from 1.76305e-005 ++to 1.76305e-005
Heightened Def Con from 1.76305e-005 to 1.76305e-005
Heightened Def Con from 1.76305e-005 to 1.76305e-005
Heightened Def Con from 1.76305e-005 to 1.76305e-005
Heightened Def Con from 1.76305e-005 +to 1.76315e-005
Heightened Def Con from 1.76315e-005 to 1.76316e-005
Heightened Def Con from 1.76317e-005 to 1.76317e-005
Heightened Def Con from 1.76317e-005 to 1.76317e-005
Heightened Def Con from 1.76317e-005 to 1.76317e-005
Heightened Def Con from 1.76317e-005 to 1.76317e-005
Heightened Def Con from 1.76317e-005 to 1.76317e-005
Heightened Def Con from 1.76317e-005 to 1.76317e-005
Heightened Def Con from 1.76317e-005 +to 1.76317e-005
Heightened Def Con from 1.76318e-005 to 1.76318e-005
Heightened Def Con from 1.76318e-005 to 1.76318e-005
Heightened Def Con from 1.76319e-005 to 1.76319e-005
Heightened Def Con from 1.76319e-005 to 1.76319e-005
Heightened Def Con from 1.76319e-005 +to 1.76319e-005
Heightened Def Con from 1.76319e-005 +to 1.76319e-005
Heightened Def Con from 1.76319e-005 +to 1.76319e-005
Heightened Def Con from 1.76319e-005 +to 1.76319e-005
Heightened Def Con from 1.76319e-005 to 1.76319e-005
Heightened Def Con from 1.7632e-005 to 1.7632e-005
Heightened Def Con from 1.7632e-005 to 1.7632e-005
Heightened Def Con from 1.7632e-005 ++to 1.7632e-005
Heightened Def Con from 1.7632e-005 to 1.7632e-005
Heightened Def Con from 1.7632e-005 to 1.7632e-005
Heightened Def Con from 1.76321e-005 +to 1.76321e-005
Heightened Def Con from 1.76321e-005 to 1.76321e-005
Heightened Def Con from 1.76321e-005 +to 1.76322e-005
Heightened Def Con from 1.76322e-005 ++to 1.76322e-005
Heightened Def Con from 1.76322e-005 to 1.76322e-005
Heightened Def Con from 1.76322e-005 +to 1.76322e-005
Heightened Def Con from 1.76322e-005 to 1.76322e-005
Heightened Def Con from 1.76322e-005 +to 1.76322e-005
Heightened Def Con from 1.76323e-005 +to 1.76323e-005
Heightened Def Con from 1.76323e-005 +to 1.76323e-005
Heightened Def Con from 1.76323e-005 +to 1.76323e-005
Heightened Def Con from 1.76323e-005 to 1.76323e-005
Heightened Def Con from 1.76323e-005 to 1.76323e-005
Heightened Def Con from 1.76323e-005 +to 1.76323e-005
Heightened Def Con from 1.76323e-005 ++to 1.76323e-005
Heightened Def Con from 1.76323e-005 to 1.76323e-005
Heightened Def Con from 1.76324e-005 to 1.76324e-005
Heightened Def Con from 1.76324e-005 to 1.76324e-005
Heightened Def Con from 1.76324e-005 ++to 1.76324e-005
Heightened Def Con from 1.76324e-005 to 1.76324e-005
Heightened Def Con from 1.76324e-005 to 1.76324e-005
Heightened Def Con from 1.76324e-005 +to 1.76324e-005
Heightened Def Con from 1.76325e-005 to 1.76325e-005
Heightened Def Con from 1.76325e-005 to 1.76325e-005
Heightened Def Con from 1.76325e-005 to 1.76325e-005
Heightened Def Con from 1.76325e-005 +to 1.76325e-005
Heightened Def Con from 1.76325e-005 +to 1.76326e-005
Heightened Def Con from 1.76326e-005 to 1.76326e-005
Heightened Def Con from 1.76326e-005 +to 1.76326e-005
Heightened Def Con from 1.76326e-005 to 1.76326e-005
Heightened Def Con from 1.76326e-005 +to 1.76326e-005
Heightened Def Con from 1.76326e-005 ++to 1.76326e-005
Heightened Def Con from 1.76326e-005 to 1.76326e-005
Heightened Def Con from 1.76326e-005 to 1.76326e-005
Heightened Def Con from 1.76326e-005 to 1.76326e-005
Heightened Def Con from 1.76326e-005 to 1.76326e-005
Heightened Def Con from 1.76326e-005 to 1.76327e-005
Heightened Def Con from 1.76327e-005 to 1.76327e-005
Heightened Def Con from 1.76327e-005 +to 1.76327e-005
Heightened Def Con from 1.76329e-005 to 1.76339e-005
Heightened Def Con from 1.76339e-005 to 1.76339e-005
Heightened Def Con from 1.76339e-005 +to 1.76339e-005
Heightened Def Con from 1.76339e-005 +to 1.76339e-005
Heightened Def Con from 1.76339e-005 to 1.76339e-005
Heightened Def Con from 1.76339e-005 +to 1.76341e-005
Heightened Def Con from 1.76341e-005 to 1.76341e-005
Heightened Def Con from 1.76341e-005 to 1.76341e-005
Heightened Def Con from 1.76341e-005 +to 1.76341e-005
Heightened Def Con from 1.76341e-005 to 1.76341e-005
Heightened Def Con from 1.76341e-005 to 1.76341e-005
Heightened Def Con from 1.76341e-005 to 1.76341e-005
Heightened Def Con from 1.76341e-005 +to 1.76341e-005
Heightened Def Con from 1.76341e-005 to 1.76341e-005
Heightened Def Con from 1.76341e-005 +to 1.76342e-005
Heightened Def Con from 1.76342e-005 to 1.76342e-005
Heightened Def Con from 1.76342e-005 to 1.76342e-005
Heightened Def Con from 1.76342e-005 +to 1.76342e-005
Heightened Def Con from 1.76342e-005 ++to 1.76342e-005
Heightened Def Con from 1.76342e-005 ++to 1.76342e-005
Heightened Def Con from 1.76342e-005 +to 1.76342e-005
Heightened Def Con from 1.76343e-005 to 1.76343e-005
Heightened Def Con from 1.76343e-005 +to 1.76343e-005
Heightened Def Con from 1.76343e-005 ++to 1.76343e-005
Heightened Def Con from 1.76343e-005 to 1.76343e-005
Heightened Def Con from 1.76343e-005 to 1.76343e-005
Heightened Def Con from 1.76343e-005 +to 1.76353e-005
Heightened Def Con from 1.76353e-005 to 1.76353e-005
Heightened Def Con from 1.76353e-005 +to 1.76353e-005
Heightened Def Con from 1.76353e-005 to 1.76353e-005
Heightened Def Con from 1.76353e-005 +to 1.76353e-005
Heightened Def Con from 1.76353e-005 to 1.76353e-005
Heightened Def Con from 1.76353e-005 to 1.76353e-005
Heightened Def Con from 1.76354e-005 to 1.76354e-005
Heightened Def Con from 1.76354e-005 +++to 1.76355e-005
Heightened Def Con from 1.76355e-005 to 1.76355e-005
Heightened Def Con from 1.76355e-005 +to 1.76355e-005
Heightened Def Con from 1.7636e-005 to 1.7636e-005
Heightened Def Con from 1.7636e-005 +to 1.7636e-005
Heightened Def Con from 1.7636e-005 to 1.7636e-005
Heightened Def Con from 1.7636e-005 to 1.7636e-005
Heightened Def Con from 1.7636e-005 to 1.7636e-005
Heightened Def Con from 1.7636e-005 to 1.7636e-005
Heightened Def Con from 1.7636e-005 to 1.7636e-005
Heightened Def Con from 1.7636e-005 to 1.7636e-005
Heightened Def Con from 1.7636e-005 to 1.76361e-005
Heightened Def Con from 1.76361e-005 to 1.76361e-005
Heightened Def Con from 1.76361e-005 to 1.76361e-005
Heightened Def Con from 1.76361e-005 to 1.76361e-005
Heightened Def Con from 1.76361e-005 +to 1.76361e-005
Heightened Def Con from 1.76363e-005 to 1.76363e-005
Heightened Def Con from 1.76363e-005 +to 1.76363e-005
Heightened Def Con from 1.76364e-005 +to 1.76364e-005
Heightened Def Con from 1.76364e-005 to 1.76365e-005
Heightened Def Con from 1.76365e-005 to 1.76365e-005
Heightened Def Con from 1.76365e-005 +to 1.76365e-005
Heightened Def Con from 1.85842e-005 to 1.85842e-005
Heightened Def Con from 1.85842e-005 to 1.85842e-005
Heightened Def Con from 1.85842e-005 to 1.85842e-005
Heightened Def Con from 1.85842e-005 to 1.85842e-005
Heightened Def Con from 1.85842e-005 to 1.85842e-005
Heightened Def Con from 1.85842e-005 to 1.85842e-005
Heightened Def Con from 1.85842e-005 to 1.85842e-005
Heightened Def Con from 1.85842e-005 to 1.85842e-005
Heightened Def Con from 1.85842e-005 +to 1.85842e-005
Heightened Def Con from 1.85843e-005 +to 1.85843e-005
Heightened Def Con from 1.85843e-005 +to 1.85853e-005
Heightened Def Con from 1.85853e-005 to 1.85853e-005
Heightened Def Con from 1.85853e-005 to 1.85853e-005
Heightened Def Con from 1.85853e-005 to 1.85854e-005
Heightened Def Con from 1.85854e-005 to 1.85854e-005
Heightened Def Con from 1.85854e-005 to 1.85854e-005
Heightened Def Con from 1.85854e-005 to 1.85854e-005
Heightened Def Con from 1.85854e-005 +++to 1.85854e-005
Heightened Def Con from 1.85855e-005 to 1.85855e-005
Heightened Def Con from 1.85855e-005 +to 1.85855e-005
Heightened Def Con from 1.85855e-005 to 1.85855e-005
Heightened Def Con from 1.85855e-005 +to 1.85855e-005
Heightened Def Con from 1.85855e-005 to 1.85855e-005
Heightened Def Con from 1.85855e-005 to 1.85855e-005
Heightened Def Con from 1.85855e-005 to 1.85855e-005
Heightened Def Con from 1.85855e-005 +to 1.85855e-005
Heightened Def Con from 1.85855e-005 to 1.85855e-005
Heightened Def Con from 1.85855e-005 to 1.85856e-005
Heightened Def Con from 1.85856e-005 to 1.85856e-005
Heightened Def Con from 1.85856e-005 to 1.85856e-005
Heightened Def Con from 1.85856e-005 to 1.85856e-005
Heightened Def Con from 1.85856e-005 to 1.85856e-005
Heightened Def Con from 1.85856e-005 to 1.85856e-005
Heightened Def Con from 1.85856e-005 to 1.85856e-005
Heightened Def Con from 1.85856e-005 to 1.85856e-005
Heightened Def Con from 1.85856e-005 ++to 1.85856e-005
Heightened Def Con from 1.85856e-005 to 1.85856e-005
Heightened Def Con from 1.85856e-005 to 1.85856e-005
Heightened Def Con from 1.85856e-005 to 1.85856e-005
Heightened Def Con from 1.85857e-005 +to 1.85867e-005
Heightened Def Con from 1.85867e-005 to 1.85867e-005
Heightened Def Con from 1.85867e-005 to 1.85867e-005
Heightened Def Con from 1.85867e-005 +to 1.85867e-005
Heightened Def Con from 1.85867e-005 to 1.85867e-005
Heightened Def Con from 1.85867e-005 to 1.85867e-005
Heightened Def Con from 1.85867e-005 ++to 1.85867e-005
Heightened Def Con from 1.85867e-005 to 1.85868e-005
Heightened Def Con from 1.85868e-005 +to 1.85868e-005
Heightened Def Con from 1.85868e-005 +to 1.85868e-005
Heightened Def Con from 1.85868e-005 +to 1.85868e-005
Heightened Def Con from 1.85868e-005 to 1.85868e-005
Heightened Def Con from 1.85868e-005 to 1.85868e-005
Heightened Def Con from 1.85868e-005 to 1.85868e-005
Heightened Def Con from 1.85868e-005 to 1.85868e-005
Heightened Def Con from 1.85868e-005 to 1.85868e-005
Heightened Def Con from 1.85868e-005 +to 1.85868e-005
Heightened Def Con from 1.85868e-005 to 1.85868e-005
Heightened Def Con from 1.85869e-005 ++to 1.85869e-005
Heightened Def Con from 1.85869e-005 to 1.85869e-005
Heightened Def Con from 1.85869e-005 to 1.85869e-005
Heightened Def Con from 1.85869e-005 +to 1.85869e-005
Heightened Def Con from 1.85869e-005 to 1.85869e-005
Heightened Def Con from 1.85869e-005 to 1.85869e-005
Heightened Def Con from 1.8587e-005 to 1.8587e-005
Heightened Def Con from 1.8587e-005 +to 1.8587e-005
Heightened Def Con from 1.8587e-005 to 1.8587e-005
Heightened Def Con from 1.8587e-005 +to 1.8587e-005
Heightened Def Con from 1.8587e-005 +to 1.8587e-005
Heightened Def Con from 1.8587e-005 to 1.8587e-005
Heightened Def Con from 1.8587e-005 ++to 1.8587e-005
Heightened Def Con from 1.8587e-005 to 1.8587e-005
Heightened Def Con from 1.8587e-005 to 1.8587e-005
Heightened Def Con from 1.85871e-005 +to 1.85871e-005
Heightened Def Con from 1.85871e-005 +to 1.85871e-005
Heightened Def Con from 1.85871e-005 +to 1.85871e-005
Heightened Def Con from 1.85871e-005 +to 1.85871e-005
Heightened Def Con from 1.85871e-005 to 1.85871e-005
Heightened Def Con from 1.85871e-005 +to 1.85872e-005
Heightened Def Con from 1.85872e-005 to 1.85872e-005
Heightened Def Con from 1.85872e-005 to 1.85872e-005
Heightened Def Con from 1.85872e-005 +to 1.85872e-005
Heightened Def Con from 1.85872e-005 to 1.85872e-005
Heightened Def Con from 1.85872e-005 to 1.85873e-005
Heightened Def Con from 1.85873e-005 to 1.85873e-005
Heightened Def Con from 1.85873e-005 +to 1.85874e-005
Heightened Def Con from 1.85875e-005 to 1.85875e-005
Heightened Def Con from 1.85875e-005 +to 1.85875e-005
Heightened Def Con from 1.85875e-005 +to 1.85875e-005
Heightened Def Con from 1.85875e-005 ++to 1.85875e-005
Heightened Def Con from 1.85875e-005 to 1.85875e-005
Heightened Def Con from 1.85875e-005 to 1.85875e-005
Heightened Def Con from 1.85875e-005 to 1.85875e-005
Heightened Def Con from 1.85875e-005 +to 1.85876e-005
Heightened Def Con from 1.85876e-005 ++to 1.85876e-005
Heightened Def Con from 1.85876e-005 +to 1.85876e-005
Heightened Def Con from 1.85876e-005 +to 1.85877e-005
Heightened Def Con from 1.85877e-005 to 1.85877e-005
Heightened Def Con from 1.85877e-005 to 1.85877e-005
Heightened Def Con from 1.85877e-005 +to 1.85887e-005
Heightened Def Con from 1.85888e-005 to 1.85888e-005
Heightened Def Con from 1.85888e-005 +to 1.85888e-005
Heightened Def Con from 1.85889e-005 to 1.85889e-005
Heightened Def Con from 1.85889e-005 to 1.85889e-005
Heightened Def Con from 1.85889e-005 +to 1.85889e-005
Heightened Def Con from 1.85889e-005 to 1.85889e-005
Heightened Def Con from 1.85889e-005 ++to 1.8589e-005
Heightened Def Con from 1.8589e-005 to 1.85892e-005
Heightened Def Con from 1.85894e-005 +to 1.85894e-005
Heightened Def Con from 1.85894e-005 +to 1.85894e-005
Heightened Def Con from 1.85894e-005 ++to 1.85894e-005
Heightened Def Con from 1.85894e-005 to 1.85894e-005
Heightened Def Con from 1.85895e-005 to 1.85895e-005
Heightened Def Con from 1.85895e-005 to 1.85895e-005
Heightened Def Con from 1.85895e-005 to 1.85895e-005
Heightened Def Con from 1.85895e-005 to 1.85895e-005
Heightened Def Con from 1.85895e-005 to 1.85895e-005
Heightened Def Con from 1.85895e-005 +to 1.85895e-005
Heightened Def Con from 1.85896e-005 to 1.85896e-005
Heightened Def Con from 1.85896e-005 +to 1.85896e-005
Heightened Def Con from 1.85896e-005 to 1.85896e-005
Heightened Def Con from 1.85896e-005 to 1.85896e-005
Heightened Def Con from 1.85896e-005 +to 1.85896e-005
Heightened Def Con from 1.85896e-005 to 1.85896e-005
Heightened Def Con from 1.85896e-005 to 1.85896e-005
Heightened Def Con from 1.85896e-005 to 1.85896e-005
Heightened Def Con from 1.85896e-005 to 1.85897e-005
Heightened Def Con from 1.85897e-005 to 1.85897e-005
Heightened Def Con from 1.85897e-005 to 1.85897e-005
Heightened Def Con from 1.85898e-005 to 1.85898e-005
Heightened Def Con from 1.85898e-005 to 1.85898e-005
Heightened Def Con from 1.85898e-005 to 1.85898e-005
Heightened Def Con from 1.85898e-005 to 1.85898e-005
Heightened Def Con from 1.85898e-005 to 1.85899e-005
Heightened Def Con from 1.85899e-005 +to 1.85899e-005
Heightened Def Con from 1.85899e-005 to 1.85899e-005
Heightened Def Con from 1.85899e-005 to 1.85899e-005
Heightened Def Con from 1.85899e-005 +to 1.85899e-005
Heightened Def Con from 1.85899e-005 +to 1.85899e-005
Heightened Def Con from 1.85899e-005 to 1.85899e-005
Heightened Def Con from 1.85899e-005 to 1.85899e-005
Heightened Def Con from 1.85899e-005 to 1.85899e-005
Heightened Def Con from 1.85899e-005 to 1.859e-005
Heightened Def Con from 1.859e-005 to 1.859e-005
Heightened Def Con from 1.859e-005 +to 1.859e-005
Heightened Def Con from 1.859e-005 to 1.859e-005
Heightened Def Con from 1.859e-005 to 1.859e-005
Heightened Def Con from 1.859e-005 +to 1.859e-005
Heightened Def Con from 1.859e-005 +to 1.859e-005
Heightened Def Con from 1.859e-005 +to 1.859e-005
Heightened Def Con from 1.859e-005 to 1.859e-005
Heightened Def Con from 1.85901e-005 to 1.85901e-005
Heightened Def Con from 1.85901e-005 to 1.85901e-005
Heightened Def Con from 1.85901e-005 to 1.85901e-005
Heightened Def Con from 1.85901e-005 to 1.85901e-005
Heightened Def Con from 1.85901e-005 +to 1.85901e-005
Heightened Def Con from 1.85901e-005 to 1.85911e-005
Heightened Def Con from 1.85912e-005 to 1.85912e-005
Heightened Def Con from 1.85912e-005 to 1.85912e-005
Heightened Def Con from 1.85912e-005 to 1.85912e-005
Heightened Def Con from 1.85912e-005 to 1.85912e-005
Heightened Def Con from 1.85912e-005 +to 1.85912e-005
Heightened Def Con from 1.85912e-005 to 1.85912e-005
Heightened Def Con from 1.85912e-005 to 1.85912e-005
Heightened Def Con from 1.85912e-005 to 1.85912e-005
Heightened Def Con from 1.85912e-005 to 1.85912e-005
Heightened Def Con from 1.85913e-005 ++to 1.85913e-005
Heightened Def Con from 1.85913e-005 to 1.85913e-005
Heightened Def Con from 1.85913e-005 to 1.85913e-005
Heightened Def Con from 1.85913e-005 to 1.85913e-005
Heightened Def Con from 1.85913e-005 to 1.85914e-005
Heightened Def Con from 1.85914e-005 ++to 1.85914e-005
Heightened Def Con from 1.85914e-005 +++to 1.85914e-005
Heightened Def Con from 1.85914e-005 to 1.85914e-005
Heightened Def Con from 1.85914e-005 to 1.85914e-005
Heightened Def Con from 1.85914e-005 +to 1.85924e-005
Heightened Def Con from 1.85924e-005 ++to 1.85934e-005
Heightened Def Con from 1.85934e-005 +to 1.85934e-005
Heightened Def Con from 1.85934e-005 to 1.85934e-005
Heightened Def Con from 1.85934e-005 to 1.85934e-005
Heightened Def Con from 1.85934e-005 +to 1.85936e-005
Heightened Def Con from 1.85936e-005 to 1.85946e-005
Heightened Def Con from 1.85946e-005 to 1.85946e-005
Heightened Def Con from 1.85946e-005 to 1.85946e-005
Heightened Def Con from 1.85946e-005 +to 1.85946e-005
Heightened Def Con from 1.85946e-005 to 1.85946e-005
Heightened Def Con from 1.85947e-005 to 1.85947e-005
Heightened Def Con from 1.85947e-005 to 1.85947e-005
Heightened Def Con from 1.85947e-005 to 1.85947e-005
Heightened Def Con from 1.85947e-005 to 1.85947e-005
Heightened Def Con from 1.85947e-005 to 1.85947e-005
Heightened Def Con from 1.85947e-005 +to 1.85947e-005
Heightened Def Con from 1.85947e-005 to 1.85947e-005
Heightened Def Con from 1.85947e-005 +to 1.85947e-005
Heightened Def Con from 1.85947e-005 to 1.85947e-005
Heightened Def Con from 1.85947e-005 to 1.85947e-005
Heightened Def Con from 1.85947e-005 to 1.85947e-005
Heightened Def Con from 1.85947e-005 +++to 1.85947e-005
Heightened Def Con from 1.85947e-005 to 1.85949e-005
Heightened Def Con from 1.85949e-005 +to 1.85949e-005
Heightened Def Con from 1.85949e-005 +to 1.85949e-005
Heightened Def Con from 1.85949e-005 to 1.85949e-005
Heightened Def Con from 1.85949e-005 ++to 1.85949e-005
Heightened Def Con from 1.85949e-005 to 1.85949e-005
Heightened Def Con from 1.8595e-005 to 1.8595e-005
Heightened Def Con from 1.8595e-005 +to 1.8595e-005
Heightened Def Con from 1.8595e-005 +to 1.8596e-005
Heightened Def Con from 1.8596e-005 to 1.8596e-005
Heightened Def Con from 1.8596e-005 to 1.8596e-005
Heightened Def Con from 1.8596e-005 to 1.8596e-005
Heightened Def Con from 1.8596e-005 to 1.8596e-005
Heightened Def Con from 1.8596e-005 to 1.8596e-005
Heightened Def Con from 1.8596e-005 to 1.8596e-005
Heightened Def Con from 1.8596e-005 to 1.85961e-005
Heightened Def Con from 1.85961e-005 to 1.85961e-005
Heightened Def Con from 1.85961e-005 to 1.85961e-005
Heightened Def Con from 1.85961e-005 to 1.85961e-005
Heightened Def Con from 1.85961e-005 to 1.85961e-005
Heightened Def Con from 1.85961e-005 ++to 1.85961e-005
Heightened Def Con from 1.85961e-005 +to 1.85961e-005
Heightened Def Con from 1.85961e-005 +to 1.85961e-005
Heightened Def Con from 1.85961e-005 to 1.85961e-005
Heightened Def Con from 1.85962e-005 to 1.85962e-005
Heightened Def Con from 1.85962e-005 ++to 1.85962e-005
Heightened Def Con from 1.85962e-005 to 1.85962e-005
Heightened Def Con from 1.85962e-005 to 1.85962e-005
Heightened Def Con from 1.85962e-005 to 1.85962e-005
Heightened Def Con from 1.85962e-005 to 1.85962e-005
Heightened Def Con from 1.85962e-005 to 1.85962e-005
Heightened Def Con from 1.85963e-005 to 1.85963e-005
Heightened Def Con from 1.85963e-005 to 1.85963e-005
Heightened Def Con from 1.85963e-005 to 1.85963e-005
Heightened Def Con from 1.85963e-005 +to 1.85963e-005
Heightened Def Con from 1.85963e-005 to 1.85963e-005
Heightened Def Con from 1.85963e-005 ++to 1.85973e-005
Heightened Def Con from 1.85973e-005 to 1.85973e-005
Heightened Def Con from 1.85973e-005 +to 1.85973e-005
Heightened Def Con from 1.85974e-005 to 1.85974e-005
Heightened Def Con from 1.85974e-005 +to 1.85974e-005
Heightened Def Con from 1.85974e-005 to 1.85974e-005
Heightened Def Con from 1.85974e-005 to 1.85974e-005
Heightened Def Con from 1.85974e-005 ++to 1.85974e-005
Heightened Def Con from 1.85974e-005 to 1.85974e-005
Heightened Def Con from 1.85974e-005 +to 1.85974e-005
Heightened Def Con from 1.85974e-005 to 1.85974e-005
Heightened Def Con from 1.85974e-005 to 1.85974e-005
Heightened Def Con from 1.85974e-005 to 1.85974e-005
Heightened Def Con from 1.85974e-005 to 1.85974e-005
Heightened Def Con from 1.85974e-005 +to 1.85975e-005
Heightened Def Con from 1.85975e-005 +to 1.85975e-005
Heightened Def Con from 1.85975e-005 to 1.85975e-005
Heightened Def Con from 1.85975e-005 to 1.85975e-005
Heightened Def Con from 1.85975e-005 +to 1.85975e-005
Heightened Def Con from 1.85975e-005 +to 1.85985e-005
Heightened Def Con from 1.85985e-005 to 1.85985e-005
Heightened Def Con from 1.85985e-005 to 1.85985e-005
Heightened Def Con from 1.85985e-005 to 1.85985e-005
Heightened Def Con from 1.85986e-005 ++to 1.85986e-005
Heightened Def Con from 1.85986e-005 to 1.85986e-005
Heightened Def Con from 1.85986e-005 to 1.85986e-005
Heightened Def Con from 1.85986e-005 to 1.85986e-005
Heightened Def Con from 1.85986e-005 to 1.85986e-005
Heightened Def Con from 1.85986e-005 ++to 1.85986e-005
Heightened Def Con from 1.85986e-005 to 1.85986e-005
Heightened Def Con from 1.85986e-005 to 1.85986e-005
Heightened Def Con from 1.85987e-005 to 1.85987e-005
Heightened Def Con from 1.85987e-005 +to 1.85987e-005
Heightened Def Con from 1.85987e-005 to 1.85987e-005
Heightened Def Con from 1.85987e-005 to 1.85987e-005
Heightened Def Con from 1.85987e-005 +to 1.85987e-005
Heightened Def Con from 1.85987e-005 +to 1.85987e-005
Heightened Def Con from 1.85987e-005 to 1.85987e-005
Heightened Def Con from 1.85987e-005 to 1.85987e-005
Heightened Def Con from 1.85987e-005 ++to 1.85989e-005
Heightened Def Con from 1.85989e-005 to 1.85989e-005
Heightened Def Con from 1.85989e-005 to 1.85989e-005
Heightened Def Con from 1.85989e-005 +to 1.85989e-005
Heightened Def Con from 1.85989e-005 +to 1.85989e-005
Heightened Def Con from 1.85989e-005 +to 1.85989e-005
Heightened Def Con from 1.85989e-005 +to 1.85989e-005
Heightened Def Con from 1.85989e-005 to 1.85989e-005
Heightened Def Con from 1.85989e-005 to 1.8599e-005
Heightened Def Con from 1.8599e-005 +to 1.8599e-005
Heightened Def Con from 1.8599e-005 to 1.8599e-005
Heightened Def Con from 1.8599e-005 +to 1.8599e-005
Heightened Def Con from 1.8599e-005 ++to 1.8599e-005
Heightened Def Con from 1.85991e-005 to 1.85991e-005
Heightened Def Con from 1.85991e-005 to 1.85991e-005
Heightened Def Con from 1.85991e-005 to 1.85991e-005
Heightened Def Con from 1.85991e-005 +to 1.85991e-005
Heightened Def Con from 1.85991e-005 +to 1.85991e-005
Heightened Def Con from 1.85992e-005 +to 1.85992e-005
Heightened Def Con from 1.85992e-005 +to 1.85993e-005
Heightened Def Con from 1.85993e-005 to 1.85993e-005
Heightened Def Con from 1.85993e-005 to 1.85993e-005
Heightened Def Con from 1.85993e-005 to 1.85993e-005
Heightened Def Con from 1.85993e-005 to 1.85993e-005
Heightened Def Con from 1.85993e-005 to 1.85993e-005
Heightened Def Con from 1.85993e-005 to 1.85993e-005
Heightened Def Con from 1.85993e-005 to 1.85993e-005
Heightened Def Con from 1.85993e-005 +to 1.86003e-005
Heightened Def Con from 1.86003e-005 to 1.86003e-005
Heightened Def Con from 1.86003e-005 ++to 1.86005e-005
Heightened Def Con from 1.86005e-005 to 1.86005e-005
Heightened Def Con from 1.86005e-005 to 1.86005e-005
Heightened Def Con from 1.86005e-005 to 1.86005e-005
Heightened Def Con from 1.86005e-005 to 1.86005e-005
Heightened Def Con from 1.86005e-005 +to 1.86005e-005
Heightened Def Con from 1.86005e-005 +to 1.86005e-005
Heightened Def Con from 1.86005e-005 to 1.86005e-005
Heightened Def Con from 1.86006e-005 to 1.86006e-005
Heightened Def Con from 1.86006e-005 to 1.86006e-005
Heightened Def Con from 1.86006e-005 +to 1.86006e-005
Heightened Def Con from 1.86006e-005 to 1.86006e-005
Heightened Def Con from 1.86006e-005 +to 1.86006e-005
Heightened Def Con from 1.86006e-005 ++to 1.86006e-005
Heightened Def Con from 1.86006e-005 +to 1.86006e-005
Heightened Def Con from 1.86006e-005 to 1.86006e-005
Heightened Def Con from 1.86007e-005 +to 1.86017e-005
Heightened Def Con from 1.86017e-005 +to 1.86017e-005
Heightened Def Con from 1.86017e-005 to 1.86017e-005
Heightened Def Con from 1.86017e-005 to 1.86017e-005
Heightened Def Con from 1.86017e-005 to 1.86017e-005
Heightened Def Con from 1.86017e-005 to 1.86017e-005
Heightened Def Con from 1.86017e-005 +to 1.86017e-005
Heightened Def Con from 1.86017e-005 to 1.86017e-005
Heightened Def Con from 1.86017e-005 ++to 1.86018e-005
Heightened Def Con from 1.86018e-005 to 1.86018e-005
Heightened Def Con from 1.86018e-005 to 1.86018e-005
Heightened Def Con from 1.86018e-005 +to 1.86018e-005
Heightened Def Con from 1.86018e-005 to 1.86018e-005
Heightened Def Con from 1.86018e-005 +to 1.86018e-005
Heightened Def Con from 1.86018e-005 to 1.86018e-005
Heightened Def Con from 1.86018e-005 +to 1.86018e-005
Heightened Def Con from 1.86018e-005 to 1.86018e-005
Heightened Def Con from 1.86018e-005 to 1.86018e-005
Heightened Def Con from 1.86018e-005 to 1.86018e-005
Heightened Def Con from 1.86018e-005 to 1.86018e-005
Heightened Def Con from 1.86018e-005 to 1.86018e-005
Heightened Def Con from 1.86018e-005 +to 1.86018e-005
Heightened Def Con from 1.86018e-005 to 1.86018e-005
Heightened Def Con from 1.86018e-005 to 1.86018e-005
Heightened Def Con from 1.86018e-005 +to 1.86019e-005
Heightened Def Con from 1.86019e-005 to 1.86019e-005
Heightened Def Con from 1.86019e-005 to 1.86019e-005
Heightened Def Con from 1.86019e-005 to 1.86019e-005
Heightened Def Con from 1.86019e-005 to 1.86019e-005
Heightened Def Con from 1.86019e-005 to 1.86019e-005
Heightened Def Con from 1.86019e-005 to 1.86019e-005
Heightened Def Con from 1.86019e-005 +to 1.86019e-005
Heightened Def Con from 1.86019e-005 to 1.86019e-005
Heightened Def Con from 1.86019e-005 to 1.86019e-005
Heightened Def Con from 1.86019e-005 +to 1.86019e-005
Heightened Def Con from 1.86019e-005 to 1.86021e-005
Heightened Def Con from 1.86021e-005 +to 1.86021e-005
Heightened Def Con from 1.86021e-005 to 1.86021e-005
Heightened Def Con from 1.86021e-005 to 1.86021e-005
Heightened Def Con from 1.86021e-005 +to 1.86021e-005
Heightened Def Con from 1.86021e-005 +++to 1.86021e-005
Heightened Def Con from 1.86021e-005 +to 1.86023e-005
Heightened Def Con from 1.86023e-005 +to 1.86023e-005
Heightened Def Con from 1.86023e-005 +to 1.86023e-005
Heightened Def Con from 1.86023e-005 to 1.86023e-005
Heightened Def Con from 1.86023e-005 to 1.86023e-005
Heightened Def Con from 1.86024e-005 to 1.86024e-005
Heightened Def Con from 1.86024e-005 +to 1.86024e-005
Heightened Def Con from 1.86024e-005 ++to 1.86024e-005
Heightened Def Con from 1.86024e-005 to 1.86024e-005
Heightened Def Con from 1.86024e-005 to 1.86024e-005
Heightened Def Con from 1.86024e-005 +to 1.86024e-005
Heightened Def Con from 1.86025e-005 to 1.86025e-005
Heightened Def Con from 1.86025e-005 +to 1.86025e-005
Heightened Def Con from 1.86025e-005 to 1.86025e-005
Heightened Def Con from 1.86025e-005 to 1.86025e-005
Heightened Def Con from 1.86025e-005 +to 1.86025e-005
Heightened Def Con from 1.86025e-005 to 1.86036e-005
Heightened Def Con from 1.86036e-005 +to 1.86036e-005
Heightened Def Con from 1.86036e-005 to 1.86036e-005
Heightened Def Con from 1.86036e-005 to 1.86036e-005
Heightened Def Con from 1.86036e-005 to 1.86036e-005
Heightened Def Con from 1.86036e-005 to 1.86036e-005
Heightened Def Con from 1.86036e-005 to 1.86036e-005
Heightened Def Con from 1.86036e-005 to 1.86036e-005
Heightened Def Con from 1.86036e-005 to 1.86036e-005
Heightened Def Con from 1.86036e-005 to 1.86036e-005
Heightened Def Con from 1.86036e-005 +++to 1.86036e-005
Heightened Def Con from 1.86036e-005 to 1.86036e-005
Heightened Def Con from 1.86036e-005 +to 1.86046e-005
Heightened Def Con from 1.86046e-005 +to 1.86046e-005
Heightened Def Con from 1.86046e-005 ++to 1.86046e-005
Heightened Def Con from 1.86046e-005 +to 1.86048e-005
Heightened Def Con from 1.86048e-005 to 1.86048e-005
Heightened Def Con from 1.86048e-005 to 1.86048e-005
Heightened Def Con from 1.86048e-005 +to 1.86048e-005
Heightened Def Con from 1.86048e-005 to 1.86048e-005
Heightened Def Con from 1.86048e-005 to 1.86048e-005
Heightened Def Con from 1.86048e-005 +to 1.86048e-005
Heightened Def Con from 1.86048e-005 to 1.86048e-005
Heightened Def Con from 1.86048e-005 +to 1.86048e-005
Heightened Def Con from 1.86048e-005 to 1.86048e-005
Heightened Def Con from 1.86048e-005 to 1.86048e-005
Heightened Def Con from 1.86048e-005 +to 1.86059e-005
Heightened Def Con from 1.86059e-005 +to 1.8606e-005
Heightened Def Con from 1.8606e-005 to 1.8606e-005
Heightened Def Con from 1.8606e-005 ++to 1.8606e-005
Heightened Def Con from 1.8606e-005 +to 1.8607e-005
Heightened Def Con from 1.8607e-005 to 1.8607e-005
Heightened Def Con from 1.8607e-005 to 1.8607e-005
Heightened Def Con from 1.8607e-005 to 1.8607e-005
Heightened Def Con from 1.8607e-005 to 1.8607e-005
Heightened Def Con from 1.8607e-005 to 1.8607e-005
Heightened Def Con from 1.8607e-005 to 1.86071e-005
Heightened Def Con from 1.86071e-005 +to 1.86071e-005
Heightened Def Con from 1.86071e-005 to 1.86071e-005
Heightened Def Con from 1.86071e-005 +to 1.86071e-005
Heightened Def Con from 1.86071e-005 to 1.86071e-005
Heightened Def Con from 1.86071e-005 ++to 1.86071e-005
Heightened Def Con from 1.86071e-005 to 1.86071e-005
Heightened Def Con from 1.86071e-005 to 1.86071e-005
Heightened Def Con from 1.86071e-005 to 1.86071e-005
Heightened Def Con from 1.86071e-005 to 1.86072e-005
Heightened Def Con from 1.86072e-005 +to 1.86072e-005
Heightened Def Con from 1.86072e-005 to 1.86072e-005
Heightened Def Con from 1.86072e-005 to 1.86072e-005
Heightened Def Con from 1.86072e-005 to 1.86072e-005
Heightened Def Con from 1.86072e-005 +to 1.86072e-005
Heightened Def Con from 1.86072e-005 to 1.86072e-005
Heightened Def Con from 1.86072e-005 to 1.86072e-005
Heightened Def Con from 1.86072e-005 +to 1.86072e-005
Heightened Def Con from 1.86072e-005 to 1.86072e-005
Heightened Def Con from 1.86072e-005 to 1.86073e-005
Heightened Def Con from 1.86073e-005 to 1.86073e-005
Heightened Def Con from 1.86073e-005 to 1.86073e-005
Heightened Def Con from 1.86073e-005 +to 1.86073e-005
Heightened Def Con from 1.86073e-005 to 1.86073e-005
Heightened Def Con from 1.86073e-005 to 1.86073e-005
Heightened Def Con from 1.86073e-005 +to 1.86073e-005
Heightened Def Con from 1.86073e-005 to 1.86073e-005
Heightened Def Con from 1.86073e-005 +to 1.86073e-005
Heightened Def Con from 1.86073e-005 to 1.86073e-005
Heightened Def Con from 1.86073e-005 to 1.86073e-005
Heightened Def Con from 1.86073e-005 to 1.86073e-005
Heightened Def Con from 1.86074e-005 to 1.86074e-005
Heightened Def Con from 1.86074e-005 +to 1.86074e-005
Heightened Def Con from 1.86074e-005 +to 1.86075e-005
Heightened Def Con from 1.86075e-005 +to 1.86085e-005
Heightened Def Con from 1.86085e-005 to 1.86085e-005
Heightened Def Con from 1.86085e-005 to 1.86085e-005
Heightened Def Con from 1.86085e-005 +to 1.86085e-005
Heightened Def Con from 1.86085e-005 to 1.86085e-005
Heightened Def Con from 1.86085e-005 to 1.86085e-005
Heightened Def Con from 1.86085e-005 to 1.86095e-005
Heightened Def Con from 1.86095e-005 to 1.86096e-005
Heightened Def Con from 1.86096e-005 to 1.86096e-005
Heightened Def Con from 1.86096e-005 +to 1.86096e-005
Heightened Def Con from 1.86096e-005 to 1.86096e-005
Heightened Def Con from 1.86096e-005 +to 1.86096e-005
Heightened Def Con from 1.86096e-005 to 1.86096e-005
Heightened Def Con from 1.86096e-005 to 1.86096e-005
Heightened Def Con from 1.86096e-005 to 1.86096e-005
Heightened Def Con from 1.86096e-005 to 1.86096e-005
Heightened Def Con from 1.86096e-005 to 1.86096e-005
Heightened Def Con from 1.86096e-005 +to 1.86097e-005
Heightened Def Con from 1.86097e-005 to 1.86097e-005
Heightened Def Con from 1.86097e-005 +to 1.86097e-005
Heightened Def Con from 1.86098e-005 to 1.86098e-005
Heightened Def Con from 1.86098e-005 to 1.86098e-005
Heightened Def Con from 1.86098e-005 to 1.86098e-005
Heightened Def Con from 1.86098e-005 +to 1.86098e-005
Heightened Def Con from 1.86098e-005 to 1.86098e-005
Heightened Def Con from 1.86098e-005 +to 1.86098e-005
Heightened Def Con from 1.86098e-005 to 1.86098e-005
Heightened Def Con from 1.86098e-005 +to 1.86098e-005
Heightened Def Con from 1.86098e-005 to 1.86098e-005
Heightened Def Con from 1.86098e-005 to 1.86098e-005
Heightened Def Con from 1.86098e-005 +to 1.86098e-005
Heightened Def Con from 1.86098e-005 to 1.86098e-005
Heightened Def Con from 1.86099e-005 ++to 1.86099e-005
Heightened Def Con from 1.86099e-005 to 1.86099e-005
Heightened Def Con from 1.86099e-005 +to 1.86099e-005
Heightened Def Con from 1.86099e-005 ++to 1.86099e-005
Heightened Def Con from 1.86099e-005 ++to 1.86099e-005
Heightened Def Con from 1.86099e-005 +to 1.86099e-005
Heightened Def Con from 1.86099e-005 +to 1.86099e-005
Heightened Def Con from 1.86099e-005 +to 1.86099e-005
Heightened Def Con from 1.86099e-005 to 1.86099e-005
Heightened Def Con from 1.86099e-005 to 1.86099e-005
Heightened Def Con from 1.86099e-005 to 1.861e-005
Heightened Def Con from 1.861e-005 to 1.861e-005
Heightened Def Con from 1.861e-005 to 1.861e-005
Heightened Def Con from 1.861e-005 +to 1.861e-005
Heightened Def Con from 1.861e-005 to 1.861e-005
Heightened Def Con from 1.861e-005 to 1.861e-005
Heightened Def Con from 1.861e-005 +to 1.861e-005
Heightened Def Con from 1.861e-005 to 1.861e-005
Heightened Def Con from 1.861e-005 to 1.861e-005
Heightened Def Con from 1.861e-005 to 1.861e-005
Heightened Def Con from 1.861e-005 +to 1.8611e-005
Heightened Def Con from 1.8611e-005 to 1.8611e-005
Heightened Def Con from 1.8611e-005 to 1.8611e-005
Heightened Def Con from 1.8611e-005 to 1.8611e-005
Heightened Def Con from 1.8611e-005 ++to 1.8611e-005
Heightened Def Con from 1.8611e-005 to 1.8611e-005
Heightened Def Con from 1.8611e-005 +to 1.8611e-005
Heightened Def Con from 1.8611e-005 to 1.8611e-005
Heightened Def Con from 1.8611e-005 to 1.8611e-005
Heightened Def Con from 1.8611e-005 +to 1.86111e-005
Heightened Def Con from 1.86111e-005 to 1.86111e-005
Heightened Def Con from 1.86111e-005 to 1.86111e-005
Heightened Def Con from 1.86111e-005 to 1.86111e-005
Heightened Def Con from 1.86111e-005 to 1.86111e-005
Heightened Def Con from 1.86111e-005 to 1.86111e-005
Heightened Def Con from 1.86111e-005 to 1.86111e-005
Heightened Def Con from 1.86111e-005 to 1.86111e-005
Heightened Def Con from 1.86111e-005 to 1.86111e-005
Heightened Def Con from 1.86111e-005 to 1.86111e-005
Heightened Def Con from 1.86111e-005 +to 1.86111e-005
Heightened Def Con from 1.86112e-005 to 1.86112e-005
Heightened Def Con from 1.86112e-005 to 1.86112e-005
Heightened Def Con from 1.86112e-005 ++to 1.86113e-005
Heightened Def Con from 1.86113e-005 to 1.86113e-005
Heightened Def Con from 1.86113e-005 to 1.86113e-005
Heightened Def Con from 1.86113e-005 +to 1.86113e-005
Heightened Def Con from 1.86114e-005 to 1.86115e-005
Heightened Def Con from 1.86115e-005 +to 1.86115e-005
Heightened Def Con from 1.86115e-005 to 1.86115e-005
Heightened Def Con from 1.86115e-005 +to 1.86115e-005
Heightened Def Con from 1.86115e-005 to 1.86115e-005
Heightened Def Con from 1.86116e-005 ++to 1.86117e-005
Heightened Def Con from 1.86117e-005 to 1.86117e-005
Heightened Def Con from 1.86117e-005 ++to 1.86117e-005
Heightened Def Con from 1.86117e-005 +to 1.86117e-005
Heightened Def Con from 1.86117e-005 +to 1.86117e-005
Heightened Def Con from 1.86117e-005 +to 1.86127e-005
Heightened Def Con from 1.86127e-005 to 1.86127e-005
Heightened Def Con from 1.86127e-005 +to 1.86127e-005
Heightened Def Con from 1.86127e-005 +to 1.86128e-005
Heightened Def Con from 1.86128e-005 +to 1.86128e-005
Heightened Def Con from 1.86128e-005 +to 1.86128e-005
Heightened Def Con from 1.86128e-005 to 1.86128e-005
Heightened Def Con from 1.86128e-005 to 1.86128e-005
Heightened Def Con from 1.86129e-005 ++to 1.86129e-005
Heightened Def Con from 1.86129e-005 to 1.86129e-005
Heightened Def Con from 1.86129e-005 +to 1.86129e-005
Heightened Def Con from 1.86129e-005 +to 1.86129e-005
Heightened Def Con from 1.86129e-005 +to 1.86129e-005
Heightened Def Con from 1.86129e-005 +to 1.8613e-005
Heightened Def Con from 1.8613e-005 to 1.8613e-005
Heightened Def Con from 1.86131e-005 to 1.86131e-005
Heightened Def Con from 1.86131e-005 ++to 1.86131e-005
Heightened Def Con from 1.86131e-005 +to 1.86131e-005
Heightened Def Con from 1.86131e-005 ++to 1.86141e-005
Heightened Def Con from 1.86141e-005 to 1.86141e-005
Heightened Def Con from 1.86141e-005 +to 1.86141e-005
Heightened Def Con from 1.86141e-005 +to 1.86141e-005
Heightened Def Con from 1.86141e-005 +to 1.86141e-005
Heightened Def Con from 1.86141e-005 +to 1.86141e-005
Heightened Def Con from 1.86141e-005 to 1.86141e-005
Heightened Def Con from 1.86141e-005 to 1.86141e-005
Heightened Def Con from 1.86141e-005 to 1.86141e-005
Heightened Def Con from 1.86141e-005 to 1.86141e-005
Heightened Def Con from 1.86141e-005 +to 1.86141e-005
Heightened Def Con from 1.86141e-005 to 1.86141e-005
Heightened Def Con from 1.86141e-005 ++to 1.86141e-005
Heightened Def Con from 1.86142e-005 to 1.86142e-005
Heightened Def Con from 1.86142e-005 to 1.86142e-005
Heightened Def Con from 1.86142e-005 to 1.86142e-005
Heightened Def Con from 1.86142e-005 to 1.86142e-005
Heightened Def Con from 1.86142e-005 to 1.86142e-005
Heightened Def Con from 1.86142e-005 to 1.86142e-005
Heightened Def Con from 1.86142e-005 +to 1.86142e-005
Heightened Def Con from 1.86142e-005 to 1.86142e-005
Heightened Def Con from 1.86142e-005 to 1.86142e-005
Heightened Def Con from 1.86143e-005 to 1.86143e-005
Heightened Def Con from 1.86143e-005 to 1.86143e-005
Heightened Def Con from 1.86143e-005 +to 1.86143e-005
Heightened Def Con from 1.86143e-005 to 1.86143e-005
Heightened Def Con from 1.86143e-005 to 1.86143e-005
Heightened Def Con from 1.86143e-005 to 1.86143e-005
Heightened Def Con from 1.86143e-005 +to 1.86143e-005
Heightened Def Con from 1.86143e-005 to 1.86143e-005
Heightened Def Con from 1.86143e-005 +to 1.86143e-005
Heightened Def Con from 1.86143e-005 +to 1.86143e-005
Heightened Def Con from 1.86143e-005 to 1.86144e-005
Heightened Def Con from 1.86144e-005 to 1.86144e-005
Heightened Def Con from 1.86144e-005 +to 1.86144e-005
Heightened Def Con from 1.86144e-005 to 1.86144e-005
Heightened Def Con from 1.86144e-005 +to 1.86144e-005
Heightened Def Con from 1.86145e-005 to 1.86145e-005
Heightened Def Con from 1.86145e-005 to 1.86145e-005
Heightened Def Con from 1.86145e-005 to 1.86145e-005
Heightened Def Con from 1.86145e-005 ++to 1.86145e-005
Heightened Def Con from 1.86146e-005 to 1.86146e-005
Heightened Def Con from 1.86146e-005 to 1.86146e-005
Heightened Def Con from 1.86146e-005 +to 1.86146e-005
Heightened Def Con from 1.86146e-005 to 1.86146e-005
Heightened Def Con from 1.86146e-005 +to 1.86146e-005
Heightened Def Con from 1.86146e-005 to 1.86146e-005
Heightened Def Con from 1.86146e-005 to 1.86147e-005
Heightened Def Con from 1.86147e-005 to 1.86147e-005
Heightened Def Con from 1.86147e-005 +to 1.86147e-005
Heightened Def Con from 1.86147e-005 to 1.86147e-005
Heightened Def Con from 1.86148e-005 to 1.86148e-005
Heightened Def Con from 1.86148e-005 to 1.86149e-005
Heightened Def Con from 1.86149e-005 to 1.86149e-005
Heightened Def Con from 1.86149e-005 to 1.86149e-005
Heightened Def Con from 1.86149e-005 +to 1.86149e-005
Heightened Def Con from 1.86149e-005 to 1.86149e-005
Heightened Def Con from 1.86149e-005 to 1.86149e-005
Heightened Def Con from 1.8615e-005 to 1.8615e-005
Heightened Def Con from 1.8615e-005 ++to 1.8616e-005
Heightened Def Con from 1.8616e-005 +to 1.8616e-005
Heightened Def Con from 1.8616e-005 +to 1.8616e-005
Heightened Def Con from 1.86161e-005 to 1.86161e-005
Heightened Def Con from 1.86161e-005 +to 1.86161e-005
Heightened Def Con from 1.86161e-005 to 1.86161e-005
Heightened Def Con from 1.86161e-005 to 1.86161e-005
Heightened Def Con from 1.86161e-005 +to 1.86161e-005
Heightened Def Con from 1.86161e-005 +to 1.86163e-005
Heightened Def Con from 1.86165e-005 to 1.86165e-005
Heightened Def Con from 1.86165e-005 to 1.86165e-005
Heightened Def Con from 1.86165e-005 to 1.86165e-005
Heightened Def Con from 1.86165e-005 to 1.86167e-005
Heightened Def Con from 1.86168e-005 to 1.86168e-005
Heightened Def Con from 1.86168e-005 to 1.86168e-005
Heightened Def Con from 1.86168e-005 +to 1.86168e-005
Heightened Def Con from 1.86168e-005 to 1.86168e-005
Heightened Def Con from 1.86168e-005 to 1.86168e-005
Heightened Def Con from 1.86168e-005 +to 1.86168e-005
Heightened Def Con from 1.86169e-005 to 1.86169e-005
Heightened Def Con from 1.86169e-005 to 1.86169e-005
Heightened Def Con from 1.86169e-005 to 1.86169e-005
Heightened Def Con from 1.86169e-005 to 1.86169e-005
Heightened Def Con from 1.86169e-005 to 1.86169e-005
Heightened Def Con from 1.86169e-005 +to 1.86169e-005
Heightened Def Con from 1.86169e-005 to 1.86169e-005
Heightened Def Con from 1.86169e-005 +to 1.86169e-005
Heightened Def Con from 1.86169e-005 to 1.86169e-005
Heightened Def Con from 1.86169e-005 ++to 1.8617e-005
Heightened Def Con from 1.8617e-005 to 1.8617e-005
Heightened Def Con from 1.8617e-005 to 1.8617e-005
Heightened Def Con from 1.8617e-005 to 1.8617e-005
Heightened Def Con from 1.8617e-005 ++to 1.8617e-005
Heightened Def Con from 1.8617e-005 to 1.8617e-005
Heightened Def Con from 1.8617e-005 to 1.8617e-005
Heightened Def Con from 1.8617e-005 +to 1.8617e-005
Heightened Def Con from 1.8617e-005 +to 1.8617e-005
Heightened Def Con from 1.8617e-005 to 1.8617e-005
Heightened Def Con from 1.86171e-005 to 1.86171e-005
Heightened Def Con from 1.86171e-005 +to 1.86171e-005
Heightened Def Con from 1.86171e-005 to 1.86171e-005
Heightened Def Con from 1.86171e-005 to 1.86171e-005
Heightened Def Con from 1.86171e-005 +to 1.86181e-005
Heightened Def Con from 1.86181e-005 ++to 1.86184e-005
Heightened Def Con from 1.86184e-005 to 1.86184e-005
Heightened Def Con from 1.86184e-005 +to 1.86184e-005
Heightened Def Con from 1.86184e-005 +to 1.86184e-005
Heightened Def Con from 1.86185e-005 to 1.86185e-005
Heightened Def Con from 1.86185e-005 to 1.86185e-005
Heightened Def Con from 1.86185e-005 +to 1.86185e-005
Heightened Def Con from 1.86185e-005 +to 1.86185e-005
Heightened Def Con from 1.86185e-005 ++to 1.86186e-005
Heightened Def Con from 1.86186e-005 to 1.86186e-005
Heightened Def Con from 1.86186e-005 to 1.86187e-005
Heightened Def Con from 1.86187e-005 +to 1.86187e-005
Heightened Def Con from 1.86187e-005 to 1.86187e-005
Heightened Def Con from 1.86188e-005 to 1.86188e-005
Heightened Def Con from 1.86188e-005 to 1.86188e-005
Heightened Def Con from 1.86188e-005 ++to 1.86188e-005
Heightened Def Con from 1.86188e-005 to 1.86188e-005
Heightened Def Con from 1.86188e-005 to 1.86188e-005
Heightened Def Con from 1.86188e-005 to 1.86188e-005
Heightened Def Con from 1.86188e-005 +to 1.86188e-005
Heightened Def Con from 1.86189e-005 ++to 1.86189e-005
Heightened Def Con from 1.86189e-005 +to 1.86189e-005
Heightened Def Con from 1.86189e-005 to 1.86189e-005
Heightened Def Con from 1.86189e-005 +to 1.86189e-005
Heightened Def Con from 1.86189e-005 +to 1.8619e-005
Heightened Def Con from 1.8619e-005 to 1.86191e-005
Heightened Def Con from 1.86191e-005 to 1.86191e-005
Heightened Def Con from 1.86191e-005 to 1.86191e-005
Heightened Def Con from 1.86191e-005 to 1.86191e-005
Heightened Def Con from 1.86192e-005 to 1.86192e-005
Heightened Def Con from 1.86192e-005 +to 1.86202e-005
Heightened Def Con from 1.86202e-005 +to 1.86202e-005
Heightened Def Con from 1.86203e-005 to 1.86203e-005
Heightened Def Con from 1.86203e-005 +to 1.86203e-005
Heightened Def Con from 1.86203e-005 to 1.86203e-005
Heightened Def Con from 1.86203e-005 to 1.86203e-005
Heightened Def Con from 1.86203e-005 +++++to 1.86203e-005
Heightened Def Con from 1.86203e-005 to 1.86203e-005
Heightened Def Con from 1.86203e-005 +to 1.86203e-005
Heightened Def Con from 1.86203e-005 to 1.86203e-005
Heightened Def Con from 1.86204e-005 +to 1.86204e-005
Heightened Def Con from 1.86204e-005 to 1.86204e-005
Heightened Def Con from 1.86204e-005 +to 1.86204e-005
Heightened Def Con from 1.86204e-005 to 1.86204e-005
Heightened Def Con from 1.86204e-005 to 1.86204e-005
Heightened Def Con from 1.86204e-005 +to 1.86204e-005
Heightened Def Con from 1.86204e-005 to 1.86204e-005
Heightened Def Con from 1.86204e-005 to 1.86204e-005
Heightened Def Con from 1.86204e-005 +to 1.86206e-005
Heightened Def Con from 1.86206e-005 ++to 1.86206e-005
Heightened Def Con from 1.86206e-005 to 1.86206e-005
Heightened Def Con from 1.86206e-005 to 1.86206e-005
Heightened Def Con from 1.86206e-005 to 1.86206e-005
Heightened Def Con from 1.86209e-005 +to 1.86209e-005
Heightened Def Con from 1.8621e-005 to 1.8621e-005
Heightened Def Con from 1.8621e-005 to 1.8621e-005
Heightened Def Con from 1.8621e-005 +to 1.8621e-005
Heightened Def Con from 1.8621e-005 to 1.8621e-005
Heightened Def Con from 1.8621e-005 to 1.8621e-005
Heightened Def Con from 1.8621e-005 +to 1.8621e-005
Heightened Def Con from 1.8621e-005 ++to 1.8621e-005
Heightened Def Con from 1.8621e-005 to 1.8621e-005
Heightened Def Con from 1.86211e-005 to 1.86211e-005
Heightened Def Con from 1.86211e-005 +to 1.86211e-005
Heightened Def Con from 1.86211e-005 to 1.86211e-005
Heightened Def Con from 1.86211e-005 to 1.86211e-005
Heightened Def Con from 1.86211e-005 to 1.86211e-005
Heightened Def Con from 1.86211e-005 to 1.86211e-005
Heightened Def Con from 1.86211e-005 to 1.86211e-005
Heightened Def Con from 1.86211e-005 +to 1.86211e-005
Heightened Def Con from 1.86211e-005 to 1.86211e-005
Heightened Def Con from 1.86211e-005 +to 1.86213e-005
Heightened Def Con from 1.86213e-005 to 1.86213e-005
Heightened Def Con from 1.86213e-005 to 1.86213e-005
Heightened Def Con from 1.86213e-005 to 1.86213e-005
Heightened Def Con from 1.86213e-005 to 1.86213e-005
Heightened Def Con from 1.86214e-005 ++to 1.86215e-005
Heightened Def Con from 1.86215e-005 to 1.86215e-005
Heightened Def Con from 1.86215e-005 to 1.86215e-005
Heightened Def Con from 1.86215e-005 to 1.86217e-005
Heightened Def Con from 1.86217e-005 +to 1.86217e-005
Heightened Def Con from 1.86217e-005 +to 1.86217e-005
Heightened Def Con from 1.86217e-005 +to 1.86217e-005
Heightened Def Con from 1.86217e-005 to 1.86217e-005
Heightened Def Con from 1.86218e-005 +to 1.86218e-005
Heightened Def Con from 1.86218e-005 ++to 1.86218e-005
Heightened Def Con from 1.86218e-005 +to 1.86218e-005
Heightened Def Con from 1.86218e-005 +to 1.86218e-005
Heightened Def Con from 1.86219e-005 ++to 1.86229e-005
Heightened Def Con from 1.86229e-005 to 1.86229e-005
Heightened Def Con from 1.86229e-005 to 1.86229e-005
Heightened Def Con from 1.86229e-005 +++to 1.8623e-005
Heightened Def Con from 1.8623e-005 to 1.8623e-005
Heightened Def Con from 1.8623e-005 to 1.8623e-005
Heightened Def Con from 1.8623e-005 to 1.8623e-005
Heightened Def Con from 1.8623e-005 +to 1.8623e-005
Heightened Def Con from 1.8623e-005 +to 1.8623e-005
Heightened Def Con from 1.8623e-005 +to 1.86232e-005
Heightened Def Con from 1.86232e-005 to 1.86242e-005
Heightened Def Con from 1.86242e-005 to 1.86242e-005
Heightened Def Con from 1.86242e-005 +to 1.86242e-005
Heightened Def Con from 1.86242e-005 to 1.86242e-005
Heightened Def Con from 1.86242e-005 to 1.86242e-005
Heightened Def Con from 1.86243e-005 to 1.86243e-005
Heightened Def Con from 1.86243e-005 +to 1.86243e-005
Heightened Def Con from 1.86243e-005 to 1.86243e-005
Heightened Def Con from 1.86243e-005 to 1.86243e-005
Heightened Def Con from 1.86243e-005 +to 1.86243e-005
Heightened Def Con from 1.86243e-005 to 1.86243e-005
Heightened Def Con from 1.86243e-005 to 1.86243e-005
Heightened Def Con from 1.86243e-005 to 1.86243e-005
Heightened Def Con from 1.86243e-005 to 1.86243e-005
Heightened Def Con from 1.86243e-005 to 1.86243e-005
Heightened Def Con from 1.86243e-005 ++to 1.86243e-005
Heightened Def Con from 1.86243e-005 ++to 1.86243e-005
Heightened Def Con from 1.86244e-005 to 1.86244e-005
Heightened Def Con from 1.86244e-005 ++to 1.86244e-005
Heightened Def Con from 1.86244e-005 +to 1.86244e-005
Heightened Def Con from 1.86244e-005 +to 1.86244e-005
Heightened Def Con from 1.86244e-005 to 1.86245e-005
Heightened Def Con from 1.86245e-005 to 1.86245e-005
Heightened Def Con from 1.86245e-005 +to 1.86245e-005
Heightened Def Con from 1.86245e-005 to 1.86245e-005
Heightened Def Con from 1.86245e-005 to 1.86245e-005
Heightened Def Con from 1.86245e-005 to 1.86246e-005
Heightened Def Con from 1.86246e-005 +to 1.86246e-005
Heightened Def Con from 1.86246e-005 to 1.86246e-005
Heightened Def Con from 1.86246e-005 to 1.86246e-005
Heightened Def Con from 1.86246e-005 to 1.86246e-005
Heightened Def Con from 1.86246e-005 +to 1.86246e-005
Heightened Def Con from 1.86246e-005 to 1.86246e-005
Heightened Def Con from 1.86246e-005 to 1.86246e-005
Heightened Def Con from 1.86246e-005 to 1.86247e-005
Heightened Def Con from 1.86247e-005 to 1.86247e-005
Heightened Def Con from 1.86247e-005 to 1.86247e-005
Heightened Def Con from 1.86247e-005 +to 1.86247e-005
Heightened Def Con from 1.86247e-005 to 1.86247e-005
Heightened Def Con from 1.86247e-005 +to 1.86247e-005
Heightened Def Con from 1.86247e-005 +to 1.86247e-005
Heightened Def Con from 1.86247e-005 to 1.86247e-005
Heightened Def Con from 1.86247e-005 to 1.86247e-005
Heightened Def Con from 1.86247e-005 +to 1.86247e-005
Heightened Def Con from 1.86247e-005 to 1.86247e-005
Heightened Def Con from 1.86247e-005 +to 1.86247e-005
Heightened Def Con from 1.86248e-005 to 1.86248e-005
Heightened Def Con from 1.86248e-005 to 1.86248e-005
Heightened Def Con from 1.86248e-005 ++to 1.86248e-005
Heightened Def Con from 1.86248e-005 to 1.86248e-005
Heightened Def Con from 1.86249e-005 to 1.86249e-005
Heightened Def Con from 1.86249e-005 to 1.86249e-005
Heightened Def Con from 1.86249e-005 +to 1.86249e-005
Heightened Def Con from 1.86249e-005 to 1.86249e-005
Heightened Def Con from 1.86249e-005 to 1.86249e-005
Heightened Def Con from 1.8625e-005 +to 1.8625e-005
Heightened Def Con from 1.8625e-005 to 1.8625e-005
Heightened Def Con from 1.8625e-005 +to 1.8625e-005
Heightened Def Con from 1.8625e-005 ++to 1.8625e-005
Heightened Def Con from 1.8625e-005 to 1.86251e-005
Heightened Def Con from 1.86251e-005 to 1.86251e-005
Heightened Def Con from 1.86251e-005 to 1.86251e-005
Heightened Def Con from 1.86251e-005 to 1.86251e-005
Heightened Def Con from 1.86251e-005 +to 1.86251e-005
Heightened Def Con from 1.86251e-005 to 1.86251e-005
Heightened Def Con from 1.86251e-005 ++to 1.86261e-005
Heightened Def Con from 1.86261e-005 to 1.86261e-005
Heightened Def Con from 1.86261e-005 +to 1.86263e-005
Heightened Def Con from 1.86263e-005 to 1.86263e-005
Heightened Def Con from 1.86263e-005 +to 1.86263e-005
Heightened Def Con from 1.86263e-005 to 1.86263e-005
Heightened Def Con from 1.86263e-005 +to 1.86264e-005
Heightened Def Con from 1.86265e-005 +to 1.86275e-005
Heightened Def Con from 1.86275e-005 +to 1.86275e-005
Heightened Def Con from 1.86275e-005 +to 1.86275e-005
Heightened Def Con from 1.86275e-005 to 1.86275e-005
Heightened Def Con from 1.86275e-005 +to 1.86276e-005
Heightened Def Con from 1.86276e-005 to 1.86276e-005
Heightened Def Con from 1.86276e-005 +to 1.86276e-005
Heightened Def Con from 1.86276e-005 to 1.86276e-005
Heightened Def Con from 1.86276e-005 +to 1.86276e-005
Heightened Def Con from 1.86276e-005 to 1.86276e-005
Heightened Def Con from 1.86277e-005 +to 1.86277e-005
Heightened Def Con from 1.86277e-005 to 1.86277e-005
Heightened Def Con from 1.86277e-005 to 1.86277e-005
Heightened Def Con from 1.86277e-005 to 1.86277e-005
Heightened Def Con from 1.86277e-005 +to 1.86277e-005
Heightened Def Con from 1.86277e-005 to 1.86277e-005
Heightened Def Con from 1.86277e-005 to 1.86277e-005
Heightened Def Con from 1.86277e-005 to 1.86277e-005
Heightened Def Con from 1.86277e-005 +to 1.86277e-005
Heightened Def Con from 1.86277e-005 to 1.86278e-005
Heightened Def Con from 1.86278e-005 +to 1.86278e-005
Heightened Def Con from 1.86278e-005 to 1.86278e-005
Heightened Def Con from 1.86278e-005 +to 1.86278e-005
Heightened Def Con from 1.86278e-005 to 1.86278e-005
Heightened Def Con from 1.86278e-005 to 1.86278e-005
Heightened Def Con from 1.86278e-005 to 1.86278e-005
Heightened Def Con from 1.86278e-005 to 1.86278e-005
Heightened Def Con from 1.86279e-005 to 1.86279e-005
Heightened Def Con from 1.86279e-005 to 1.86279e-005
Heightened Def Con from 1.86279e-005 +to 1.86279e-005
Heightened Def Con from 1.86279e-005 +to 1.86279e-005
Heightened Def Con from 1.86279e-005 to 1.86279e-005
Heightened Def Con from 1.86279e-005 +to 1.86279e-005
Heightened Def Con from 1.86279e-005 to 1.86279e-005
Heightened Def Con from 1.8628e-005 to 1.8628e-005
Heightened Def Con from 1.8628e-005 +to 1.8628e-005
Heightened Def Con from 1.8628e-005 to 1.8628e-005
Heightened Def Con from 1.8628e-005 to 1.8628e-005
Heightened Def Con from 1.8628e-005 to 1.8628e-005
Heightened Def Con from 1.8628e-005 to 1.8628e-005
Heightened Def Con from 1.86281e-005 to 1.86281e-005
Heightened Def Con from 1.86281e-005 to 1.86281e-005
Heightened Def Con from 1.86281e-005 +to 1.86281e-005
Heightened Def Con from 1.86281e-005 to 1.86281e-005
Heightened Def Con from 1.86282e-005 to 1.86282e-005
Heightened Def Con from 1.86282e-005 to 1.86282e-005
Heightened Def Con from 1.86282e-005 to 1.86282e-005
Heightened Def Con from 1.86282e-005 to 1.86282e-005
Heightened Def Con from 1.86282e-005 to 1.86282e-005
Heightened Def Con from 1.86282e-005 to 1.86282e-005
Heightened Def Con from 1.86282e-005 +to 1.86282e-005
Heightened Def Con from 1.86282e-005 to 1.86282e-005
Heightened Def Con from 1.86282e-005 ++to 1.86282e-005
Heightened Def Con from 1.86282e-005 to 1.86282e-005
Heightened Def Con from 1.86282e-005 to 1.86282e-005
Heightened Def Con from 1.86282e-005 to 1.86282e-005
Heightened Def Con from 1.86282e-005 +to 1.86284e-005
Heightened Def Con from 1.86284e-005 +to 1.86284e-005
Heightened Def Con from 1.86284e-005 to 1.86285e-005
Heightened Def Con from 1.86285e-005 +to 1.86286e-005
Heightened Def Con from 1.86286e-005 to 1.86286e-005
Heightened Def Con from 1.86286e-005 to 1.86286e-005
Heightened Def Con from 1.86286e-005 +to 1.86286e-005
Heightened Def Con from 1.86286e-005 +to 1.86288e-005
Heightened Def Con from 1.86288e-005 to 1.86288e-005
Heightened Def Con from 1.86288e-005 +to 1.86288e-005
Heightened Def Con from 1.86288e-005 to 1.86289e-005
Heightened Def Con from 1.86289e-005 to 1.86289e-005
Heightened Def Con from 1.86289e-005 to 1.8629e-005
Heightened Def Con from 1.8629e-005 +to 1.8629e-005
Heightened Def Con from 1.8629e-005 to 1.8629e-005
Heightened Def Con from 1.8629e-005 +to 1.8629e-005
Heightened Def Con from 1.8629e-005 to 1.8629e-005
Heightened Def Con from 1.8629e-005 to 1.8629e-005
Heightened Def Con from 1.8629e-005 to 1.8629e-005
Heightened Def Con from 1.86291e-005 to 1.86291e-005
Heightened Def Con from 1.86291e-005 to 1.86291e-005
Heightened Def Con from 1.86291e-005 to 1.86291e-005
Heightened Def Con from 1.86291e-005 +to 1.86291e-005
Heightened Def Con from 1.86291e-005 to 1.86291e-005
Heightened Def Con from 1.86291e-005 to 1.86291e-005
Heightened Def Con from 1.86291e-005 to 1.86291e-005
Heightened Def Con from 1.86292e-005 to 1.86292e-005
Heightened Def Con from 1.86292e-005 to 1.86292e-005
Heightened Def Con from 1.86292e-005 +to 1.86292e-005
Heightened Def Con from 1.86292e-005 +to 1.86292e-005
Heightened Def Con from 1.86292e-005 +to 1.86302e-005
Heightened Def Con from 1.86302e-005 to 1.86303e-005
Heightened Def Con from 1.86303e-005 to 1.86303e-005
Heightened Def Con from 1.86303e-005 to 1.86303e-005
Heightened Def Con from 1.86303e-005 to 1.86303e-005
Heightened Def Con from 1.86305e-005 to 1.86305e-005
Heightened Def Con from 1.86305e-005 to 1.86305e-005
Heightened Def Con from 1.86305e-005 +to 1.86305e-005
Heightened Def Con from 1.86305e-005 to 1.86305e-005
Heightened Def Con from 1.86306e-005 to 1.86306e-005
Heightened Def Con from 1.86306e-005 to 1.86306e-005
Heightened Def Con from 1.86306e-005 to 1.86306e-005
Heightened Def Con from 1.86306e-005 to 1.86306e-005
Heightened Def Con from 1.86306e-005 +to 1.86316e-005
Heightened Def Con from 1.86316e-005 to 1.86316e-005
Heightened Def Con from 1.86316e-005 +to 1.86316e-005
Heightened Def Con from 1.86316e-005 to 1.86316e-005
Heightened Def Con from 1.86316e-005 +to 1.86317e-005
Heightened Def Con from 1.86317e-005 to 1.86317e-005
Heightened Def Con from 1.86317e-005 to 1.86317e-005
Heightened Def Con from 1.86317e-005 to 1.86317e-005
Heightened Def Con from 1.86317e-005 to 1.86317e-005
Heightened Def Con from 1.86317e-005 to 1.86317e-005
Heightened Def Con from 1.86317e-005 to 1.86317e-005
Heightened Def Con from 1.86317e-005 +to 1.86327e-005
Heightened Def Con from 1.86328e-005 ++to 1.86329e-005
Heightened Def Con from 1.86329e-005 to 1.86329e-005
Heightened Def Con from 1.86329e-005 to 1.8633e-005
Heightened Def Con from 1.8633e-005 to 1.8633e-005
Heightened Def Con from 1.8633e-005 +to 1.8633e-005
Heightened Def Con from 1.8633e-005 +++to 1.86331e-005
Heightened Def Con from 1.86333e-005 to 1.86334e-005
Heightened Def Con from 1.86334e-005 to 1.86334e-005
Heightened Def Con from 1.86336e-005 ++to 1.86336e-005
Heightened Def Con from 1.86336e-005 to 1.86336e-005
Heightened Def Con from 1.86336e-005 ++to 1.86336e-005
Heightened Def Con from 1.86336e-005 to 1.86336e-005
Heightened Def Con from 1.86337e-005 to 1.86337e-005
Heightened Def Con from 1.86337e-005 to 1.86337e-005
Heightened Def Con from 1.86337e-005 +to 1.86337e-005
Heightened Def Con from 1.86338e-005 to 1.86338e-005
Heightened Def Con from 1.86338e-005 to 1.86338e-005
Heightened Def Con from 1.86338e-005 to 1.86338e-005
Heightened Def Con from 1.86338e-005 to 1.86338e-005
Heightened Def Con from 1.86339e-005 to 1.86339e-005
Heightened Def Con from 1.86339e-005 +to 1.86339e-005
Heightened Def Con from 1.86339e-005 to 1.86339e-005
Heightened Def Con from 1.86339e-005 to 1.86339e-005
Heightened Def Con from 1.86339e-005 +to 1.86339e-005
Heightened Def Con from 1.86339e-005 to 1.8634e-005
Heightened Def Con from 1.8634e-005 +to 1.8634e-005
Heightened Def Con from 1.8634e-005 to 1.8634e-005
Heightened Def Con from 1.8634e-005 to 1.8634e-005
Heightened Def Con from 1.8634e-005 +to 1.8635e-005
Heightened Def Con from 1.8635e-005 to 1.8635e-005
Heightened Def Con from 1.86351e-005 +to 1.86351e-005
Heightened Def Con from 1.86352e-005 to 1.86352e-005
Heightened Def Con from 1.86352e-005 to 1.86352e-005
Heightened Def Con from 1.86352e-005 to 1.86352e-005
Heightened Def Con from 1.86352e-005 to 1.86352e-005
Heightened Def Con from 1.86352e-005 to 1.86352e-005
Heightened Def Con from 1.86352e-005 to 1.86352e-005
Heightened Def Con from 1.86352e-005 to 1.86353e-005
Heightened Def Con from 1.86353e-005 +to 1.86354e-005
Heightened Def Con from 1.86354e-005 to 1.86364e-005
Heightened Def Con from 1.86364e-005 to 1.86364e-005
Heightened Def Con from 1.86364e-005 to 1.86364e-005
Heightened Def Con from 1.86364e-005 to 1.86364e-005
Heightened Def Con from 1.86364e-005 to 1.86365e-005
Heightened Def Con from 1.86365e-005 to 1.86365e-005
Heightened Def Con from 1.86365e-005 +to 1.86365e-005
Heightened Def Con from 1.86365e-005 to 1.86365e-005
Heightened Def Con from 1.86365e-005 to 1.86365e-005
Heightened Def Con from 1.86365e-005 to 1.86365e-005
Heightened Def Con from 1.86366e-005 to 1.86366e-005
Heightened Def Con from 1.86366e-005 to 1.86366e-005
Heightened Def Con from 1.86366e-005 to 1.86367e-005
Heightened Def Con from 1.86367e-005 to 1.86367e-005
Heightened Def Con from 1.86367e-005 +to 1.86367e-005
Heightened Def Con from 1.86367e-005 to 1.86367e-005
Heightened Def Con from 1.86367e-005 to 1.86367e-005
Heightened Def Con from 1.86367e-005 to 1.86368e-005
Heightened Def Con from 1.86368e-005 to 1.86368e-005
Heightened Def Con from 1.86368e-005 to 1.86368e-005
Heightened Def Con from 1.86368e-005 to 1.86368e-005
Heightened Def Con from 1.86368e-005 to 1.86368e-005
Heightened Def Con from 1.86368e-005 to 1.86368e-005
Heightened Def Con from 1.86368e-005 to 1.86368e-005
Heightened Def Con from 1.86368e-005 to 1.86368e-005
Heightened Def Con from 1.86368e-005 to 1.86368e-005
Heightened Def Con from 1.86368e-005 +to 1.86368e-005
Heightened Def Con from 1.86368e-005 to 1.86368e-005
Heightened Def Con from 1.86368e-005 +to 1.86368e-005
Heightened Def Con from 1.86368e-005 to 1.86369e-005
Heightened Def Con from 1.86369e-005 to 1.86369e-005
Heightened Def Con from 1.86369e-005 to 1.86369e-005
Heightened Def Con from 1.86369e-005 ++to 1.86369e-005
Heightened Def Con from 1.86369e-005 to 1.8637e-005
Heightened Def Con from 1.8637e-005 +to 1.8637e-005
Heightened Def Con from 1.8637e-005 ++to 1.8637e-005
Heightened Def Con from 1.8637e-005 to 1.8637e-005
Heightened Def Con from 1.86371e-005 ++to 1.86371e-005
Heightened Def Con from 1.86371e-005 to 1.86371e-005
Heightened Def Con from 1.86371e-005 to 1.86371e-005
Heightened Def Con from 1.86371e-005 +to 1.86371e-005
Heightened Def Con from 1.86371e-005 to 1.86371e-005
Heightened Def Con from 1.86371e-005 to 1.86371e-005
Heightened Def Con from 1.86371e-005 to 1.86371e-005
Heightened Def Con from 1.86372e-005 +to 1.86372e-005
Heightened Def Con from 1.86372e-005 to 1.86372e-005
Heightened Def Con from 1.86372e-005 to 1.86372e-005
Heightened Def Con from 1.86372e-005 +to 1.86372e-005
Heightened Def Con from 1.86372e-005 to 1.86373e-005
Heightened Def Con from 1.86373e-005 +to 1.86373e-005
Heightened Def Con from 1.86373e-005 +to 1.86373e-005
Heightened Def Con from 1.86374e-005 to 1.86374e-005
Heightened Def Con from 1.86374e-005 to 1.86374e-005
Heightened Def Con from 1.86374e-005 to 1.86374e-005
Heightened Def Con from 1.86374e-005 to 1.86374e-005
Heightened Def Con from 1.86374e-005 to 1.86374e-005
Heightened Def Con from 1.86374e-005 to 1.86374e-005
Heightened Def Con from 1.86374e-005 to 1.86374e-005
Heightened Def Con from 1.86374e-005 +to 1.86374e-005
Heightened Def Con from 1.86374e-005 to 1.86375e-005
Heightened Def Con from 1.86375e-005 to 1.86375e-005
Heightened Def Con from 1.86375e-005 to 1.86375e-005
Heightened Def Con from 1.86375e-005 to 1.86375e-005
Heightened Def Con from 1.86375e-005 to 1.86375e-005
Heightened Def Con from 1.86375e-005 to 1.86375e-005
Heightened Def Con from 1.86375e-005 to 1.86375e-005
Heightened Def Con from 1.86375e-005 +to 1.86375e-005
Heightened Def Con from 1.86375e-005 to 1.86375e-005
Heightened Def Con from 1.86375e-005 ++to 1.86375e-005
Heightened Def Con from 1.86375e-005 to 1.86375e-005
Heightened Def Con from 1.86375e-005 to 1.86375e-005
Heightened Def Con from 1.86375e-005 to 1.86375e-005
Heightened Def Con from 1.86375e-005 to 1.86376e-005
Heightened Def Con from 1.86376e-005 +to 1.86376e-005
Heightened Def Con from 1.86376e-005 ++to 1.86376e-005
Heightened Def Con from 1.86376e-005 to 1.86376e-005
Heightened Def Con from 1.86376e-005 to 1.86376e-005
Heightened Def Con from 1.86376e-005 ++to 1.86376e-005
Heightened Def Con from 1.86376e-005 to 1.86376e-005
[...]
Heightened Def Con from 2.00024e-005 to 2.00024e-005
Heightened Def Con from 2.00024e-005 to 2.00024e-005
Heightened Def Con from 2.00024e-005 to 2.00025e-005
Heightened Def Con from 2.00025e-005 to 2.00025e-005
Heightened Def Con from 2.00025e-005 +to 2.00025e-005
Heightened Def Con from 2.00025e-005 +to 2.00025e-005
Heightened Def Con from 2.00025e-005 to 2.00025e-005
Heightened Def Con from 2.00025e-005 ++to 2.00026e-005
Heightened Def Con from 2.00029e-005 to 2.00029e-005
Heightened Def Con from 2.00029e-005 to 2.00029e-005
Heightened Def Con from 2.00029e-005 to 2.00029e-005
Heightened Def Con from 2.00029e-005 to 2.00029e-005
Heightened Def Con from 2.00029e-005 to 2.00029e-005
Heightened Def Con from 2.0003e-005 to 2.0003e-005
Heightened Def Con from 2.0003e-005 to 2.0003e-005
Heightened Def Con from 2.0003e-005 +to 2.0003e-005
Heightened Def Con from 2.0003e-005 +to 2.0003e-005
Heightened Def Con from 2.0003e-005 +to 2.0003e-005
Heightened Def Con from 2.0003e-005 +to 2.0004e-005
Heightened Def Con from 2.0004e-005 to 2.00041e-005
Heightened Def Con from 2.00041e-005 to 2.00041e-005
Heightened Def Con from 2.00041e-005 ++to 2.00041e-005
Heightened Def Con from 2.00041e-005 to 2.00041e-005
Heightened Def Con from 2.00041e-005 +to 2.00041e-005
Heightened Def Con from 2.00041e-005 ++to 2.00051e-005
Heightened Def Con from 2.00051e-005 +to 2.00051e-005
Heightened Def Con from 2.00051e-005 +to 2.00051e-005
Heightened Def Con from 2.00051e-005 to 2.00051e-005
Heightened Def Con from 2.00051e-005 +to 2.00051e-005
Heightened Def Con from 2.00052e-005 to 2.00052e-005
Heightened Def Con from 2.00052e-005 +to 2.00052e-005
Heightened Def Con from 2.00052e-005 to 2.00052e-005
Heightened Def Con from 2.00052e-005 +to 2.00054e-005
Heightened Def Con from 2.00054e-005 to 2.00054e-005
Heightened Def Con from 2.00054e-005 to 2.00054e-005
Heightened Def Con from 2.00054e-005 +to 2.00064e-005
Heightened Def Con from 2.00064e-005 to 2.00064e-005
Heightened Def Con from 2.00064e-005 to 2.00064e-005
Heightened Def Con from 2.00064e-005 to 2.00064e-005
Heightened Def Con from 2.00064e-005 +to 2.00065e-005
Heightened Def Con from 2.00065e-005 +to 2.00065e-005
Heightened Def Con from 2.00065e-005 to 2.00065e-005
Heightened Def Con from 2.00065e-005 +to 2.00065e-005
Heightened Def Con from 2.00065e-005 to 2.00065e-005
Heightened Def Con from 2.00065e-005 to 2.00065e-005
Heightened Def Con from 2.00065e-005 to 2.00065e-005
Heightened Def Con from 2.00065e-005 +to 2.00066e-005
Heightened Def Con from 2.00066e-005 to 2.00067e-005
Heightened Def Con from 2.00067e-005 +to 2.00067e-005
Heightened Def Con from 2.00067e-005 to 2.00067e-005
Heightened Def Con from 2.00067e-005 +to 2.00067e-005
Heightened Def Con from 2.00067e-005 to 2.00067e-005
Heightened Def Con from 2.00067e-005 to 2.00067e-005
Heightened Def Con from 2.00067e-005 to 2.00067e-005
Heightened Def Con from 2.00067e-005 to 2.00067e-005
Heightened Def Con from 2.00067e-005 +to 2.00067e-005
Heightened Def Con from 2.00067e-005 +to 2.00067e-005
Heightened Def Con from 2.00067e-005 to 2.00067e-005
Heightened Def Con from 2.00067e-005 to 2.00067e-005
Heightened Def Con from 2.00067e-005 to 2.00068e-005
Heightened Def Con from 2.00068e-005 ++++to 2.00068e-005
Heightened Def Con from 2.00068e-005 to 2.00068e-005
Heightened Def Con from 2.00068e-005 +to 2.00068e-005
Heightened Def Con from 2.00068e-005 to 2.00068e-005
Heightened Def Con from 2.00068e-005 +to 2.00068e-005
Heightened Def Con from 2.00068e-005 +to 2.00068e-005
Heightened Def Con from 2.00068e-005 to 2.00068e-005
Heightened Def Con from 2.00068e-005 +to 2.00078e-005
Heightened Def Con from 2.00078e-005 ++to 2.00078e-005
Heightened Def Con from 2.00078e-005 +++to 2.00078e-005
Heightened Def Con from 2.00079e-005 to 2.00079e-005
Heightened Def Con from 2.00079e-005 to 2.00079e-005
Heightened Def Con from 2.00079e-005 +to 2.00079e-005
Heightened Def Con from 2.00079e-005 to 2.00079e-005
Heightened Def Con from 2.00079e-005 +to 2.00079e-005
Heightened Def Con from 2.00079e-005 to 2.00079e-005
Heightened Def Con from 2.00079e-005 to 2.00079e-005
Heightened Def Con from 2.00079e-005 to 2.00079e-005
Heightened Def Con from 2.00079e-005 ++to 2.00079e-005
Heightened Def Con from 2.00079e-005 to 2.0008e-005
Heightened Def Con from 2.0008e-005 +to 2.0008e-005
Heightened Def Con from 2.0008e-005 to 2.0008e-005
Heightened Def Con from 2.0008e-005 to 2.0008e-005
Heightened Def Con from 2.0008e-005 +to 2.0008e-005
Heightened Def Con from 2.0008e-005 +to 2.0008e-005
Heightened Def Con from 2.0008e-005 ++to 2.0008e-005
Heightened Def Con from 2.00081e-005 to 2.00081e-005
Heightened Def Con from 2.00081e-005 to 2.00081e-005
Heightened Def Con from 2.00081e-005 +to 2.00083e-005
Heightened Def Con from 2.00084e-005 to 2.00084e-005
Heightened Def Con from 2.00084e-005 +to 2.00084e-005
Heightened Def Con from 2.00084e-005 ++to 2.00084e-005
Heightened Def Con from 2.00084e-005 to 2.00084e-005
Heightened Def Con from 2.00084e-005 ++to 2.00084e-005
Heightened Def Con from 2.00085e-005 to 2.00085e-005
Heightened Def Con from 2.00085e-005 to 2.00085e-005
Heightened Def Con from 2.00086e-005 +to 2.00086e-005
Heightened Def Con from 2.00086e-005 to 2.00086e-005
Heightened Def Con from 2.00086e-005 to 2.00086e-005
Heightened Def Con from 2.00086e-005 +to 2.00086e-005
Heightened Def Con from 2.00086e-005 to 2.00086e-005
Heightened Def Con from 2.00086e-005 to 2.00086e-005
Heightened Def Con from 2.00086e-005 to 2.00086e-005
Heightened Def Con from 2.00086e-005 to 2.00086e-005
Heightened Def Con from 2.00086e-005 +to 2.00096e-005
Heightened Def Con from 2.00096e-005 to 2.00097e-005
Heightened Def Con from 2.00097e-005 to 2.00097e-005
Heightened Def Con from 2.00097e-005 to 2.00097e-005
Heightened Def Con from 2.00097e-005 ++to 2.00098e-005
Heightened Def Con from 2.00101e-005 to 2.00111e-005
Heightened Def Con from 2.00111e-005 to 2.00111e-005
Heightened Def Con from 2.00111e-005 to 2.00111e-005
Heightened Def Con from 2.00111e-005 +to 2.00111e-005
Heightened Def Con from 2.00111e-005 to 2.00111e-005
Heightened Def Con from 2.00111e-005 ++to 2.00111e-005
Heightened Def Con from 2.00111e-005 to 2.00111e-005
Heightened Def Con from 2.00111e-005 to 2.00111e-005
Heightened Def Con from 2.00111e-005 to 2.00111e-005
Heightened Def Con from 2.00111e-005 +to 2.00111e-005
Heightened Def Con from 2.00111e-005 +to 2.00112e-005
Heightened Def Con from 2.00112e-005 to 2.00112e-005
Heightened Def Con from 2.00112e-005 to 2.00112e-005
Heightened Def Con from 2.00112e-005 to 2.00112e-005
Heightened Def Con from 2.00112e-005 to 2.00112e-005
Heightened Def Con from 2.00112e-005 to 2.00112e-005
Heightened Def Con from 2.00112e-005 +to 2.00112e-005
Heightened Def Con from 2.00112e-005 to 2.00113e-005
Heightened Def Con from 2.00113e-005 ++to 2.00113e-005
Heightened Def Con from 2.00114e-005 to 2.00114e-005
Heightened Def Con from 2.00114e-005 to 2.00114e-005
Heightened Def Con from 2.00114e-005 +to 2.00114e-005
Heightened Def Con from 2.00114e-005 to 2.00124e-005
Heightened Def Con from 2.00124e-005 to 2.00124e-005
Heightened Def Con from 2.00124e-005 to 2.00124e-005
Heightened Def Con from 2.00124e-005 +to 2.00124e-005
Heightened Def Con from 2.00124e-005 to 2.00124e-005
Heightened Def Con from 2.00124e-005 to 2.00124e-005
Heightened Def Con from 2.00124e-005 to 2.00125e-005
Heightened Def Con from 2.00125e-005 to 2.00125e-005
Heightened Def Con from 2.00125e-005 to 2.00125e-005
Heightened Def Con from 2.00125e-005 +to 2.00126e-005
Heightened Def Con from 2.00126e-005 to 2.00126e-005
Heightened Def Con from 2.00126e-005 to 2.00126e-005
Heightened Def Con from 2.00126e-005 +to 2.00126e-005
Heightened Def Con from 2.00126e-005 to 2.00126e-005
Heightened Def Con from 2.00126e-005 to 2.00126e-005
Heightened Def Con from 2.00126e-005 to 2.00126e-005
Heightened Def Con from 2.00126e-005 to 2.00126e-005
Heightened Def Con from 2.00126e-005 to 2.00126e-005
Heightened Def Con from 2.00126e-005 to 2.00127e-005
Heightened Def Con from 2.00127e-005 to 2.00127e-005
Heightened Def Con from 2.00127e-005 +to 2.00127e-005
Heightened Def Con from 2.00127e-005 to 2.00127e-005
Heightened Def Con from 2.00127e-005 +to 2.00127e-005
Heightened Def Con from 2.00127e-005 +to 2.00127e-005
Heightened Def Con from 2.00127e-005 to 2.00127e-005
Heightened Def Con from 2.00127e-005 to 2.00127e-005
Heightened Def Con from 2.00127e-005 +to 2.00127e-005
Heightened Def Con from 2.00127e-005 ++to 2.00127e-005
Heightened Def Con from 2.00127e-005 to 2.00127e-005
Heightened Def Con from 2.00127e-005 to 2.00127e-005
Heightened Def Con from 2.00128e-005 +to 2.00128e-005
Heightened Def Con from 2.00128e-005 to 2.00128e-005
Heightened Def Con from 2.00128e-005 to 2.00128e-005
Heightened Def Con from 2.00128e-005 to 2.00128e-005
Heightened Def Con from 2.00128e-005 to 2.00128e-005
Heightened Def Con from 2.00128e-005 to 2.00128e-005
Heightened Def Con from 2.00128e-005 to 2.00128e-005
Heightened Def Con from 2.00128e-005 to 2.00128e-005
Heightened Def Con from 2.00128e-005 +to 2.00128e-005
Heightened Def Con from 2.00128e-005 to 2.00128e-005
Heightened Def Con from 2.00128e-005 +to 2.00128e-005
Heightened Def Con from 2.00128e-005 to 2.00128e-005
Heightened Def Con from 2.00129e-005 +to 2.00139e-005
Heightened Def Con from 2.00139e-005 to 2.00139e-005
Heightened Def Con from 2.00139e-005 to 2.00139e-005
Heightened Def Con from 2.00139e-005 to 2.00139e-005
Heightened Def Con from 2.00139e-005 to 2.00139e-005
Heightened Def Con from 2.00139e-005 to 2.00139e-005
Heightened Def Con from 2.00139e-005 +to 2.00139e-005
Heightened Def Con from 2.00139e-005 +to 2.00139e-005
Heightened Def Con from 2.00139e-005 to 2.00139e-005
Heightened Def Con from 2.00139e-005 +to 2.00139e-005
Heightened Def Con from 2.00139e-005 to 2.00139e-005
Heightened Def Con from 2.00139e-005 to 2.00139e-005
Heightened Def Con from 2.00139e-005 to 2.00139e-005
Heightened Def Con from 2.00139e-005 to 2.0014e-005
Heightened Def Con from 2.0014e-005 to 2.0014e-005
Heightened Def Con from 2.0014e-005 to 2.0014e-005
Heightened Def Con from 2.0014e-005 +to 2.0014e-005
Heightened Def Con from 2.0014e-005 to 2.0014e-005
Heightened Def Con from 2.0014e-005 to 2.0014e-005
Heightened Def Con from 2.0014e-005 to 2.0014e-005
Heightened Def Con from 2.0014e-005 to 2.0014e-005
Heightened Def Con from 2.0014e-005 +to 2.0014e-005
Heightened Def Con from 2.0014e-005 to 2.0014e-005
Heightened Def Con from 2.0014e-005 to 2.0014e-005
Heightened Def Con from 2.00141e-005 to 2.00141e-005
Heightened Def Con from 2.00141e-005 to 2.00141e-005
Heightened Def Con from 2.00141e-005 to 2.00141e-005
Heightened Def Con from 2.00141e-005 to 2.00141e-005
Heightened Def Con from 2.00141e-005 to 2.00141e-005
Heightened Def Con from 2.00141e-005 to 2.00141e-005
Heightened Def Con from 2.00141e-005 to 2.00141e-005
Heightened Def Con from 2.00141e-005 +to 2.00142e-005
Heightened Def Con from 2.00142e-005 to 2.00142e-005
Heightened Def Con from 2.00143e-005 +to 2.00143e-005
Heightened Def Con from 2.00143e-005 to 2.00143e-005
Heightened Def Con from 2.00143e-005 to 2.00143e-005
Heightened Def Con from 2.00143e-005 to 2.00143e-005
Heightened Def Con from 2.00143e-005 +to 2.00143e-005
Heightened Def Con from 2.00143e-005 to 2.00143e-005
Heightened Def Con from 2.00143e-005 +to 2.00143e-005
Heightened Def Con from 2.00143e-005 +to 2.00143e-005
Heightened Def Con from 2.00144e-005 to 2.00144e-005
Heightened Def Con from 2.00144e-005 to 2.00144e-005
Heightened Def Con from 2.00144e-005 +to 2.00154e-005
Heightened Def Con from 2.00154e-005 +to 2.00155e-005
Heightened Def Con from 2.00155e-005 to 2.00155e-005
Heightened Def Con from 2.00155e-005 to 2.00155e-005
Heightened Def Con from 2.00155e-005 ++to 2.00156e-005
Heightened Def Con from 2.00156e-005 to 2.00156e-005
Heightened Def Con from 2.00156e-005 to 2.00156e-005
Heightened Def Con from 2.00156e-005 to 2.00156e-005
Heightened Def Con from 2.00156e-005 +to 2.00156e-005
Heightened Def Con from 2.00156e-005 to 2.00156e-005
Heightened Def Con from 2.00156e-005 to 2.00157e-005
Heightened Def Con from 2.00157e-005 to 2.00157e-005
Heightened Def Con from 2.00157e-005 ++++to 2.00157e-005
Heightened Def Con from 2.00157e-005 +to 2.00157e-005
Heightened Def Con from 2.00157e-005 ++to 2.00157e-005
Heightened Def Con from 2.00157e-005 to 2.00157e-005
Heightened Def Con from 2.00158e-005 to 2.00158e-005
Heightened Def Con from 2.00158e-005 to 2.00158e-005
Heightened Def Con from 2.00158e-005 +to 2.00158e-005
Heightened Def Con from 2.00158e-005 to 2.00158e-005
Heightened Def Con from 2.00158e-005 to 2.00158e-005
Heightened Def Con from 2.00158e-005 to 2.00158e-005
Heightened Def Con from 2.00158e-005 +to 2.00158e-005
Heightened Def Con from 2.00158e-005 +to 2.00158e-005
Heightened Def Con from 2.00158e-005 +to 2.00158e-005
Heightened Def Con from 2.00158e-005 to 2.00158e-005
Heightened Def Con from 2.00158e-005 +to 2.00158e-005
Heightened Def Con from 2.00158e-005 to 2.00158e-005
Heightened Def Con from 2.00158e-005 +to 2.00158e-005
Heightened Def Con from 2.00158e-005 to 2.00158e-005
Heightened Def Con from 2.00158e-005 +to 2.00158e-005
Heightened Def Con from 2.00159e-005 to 2.00159e-005
Heightened Def Con from 2.00159e-005 to 2.00159e-005
Heightened Def Con from 2.00159e-005 to 2.00159e-005
Heightened Def Con from 2.00159e-005 to 2.00159e-005
Heightened Def Con from 2.00159e-005 to 2.00159e-005
Heightened Def Con from 2.00159e-005 +to 2.00159e-005
Heightened Def Con from 2.00159e-005 +to 2.00159e-005
Heightened Def Con from 2.00159e-005 to 2.00159e-005
Heightened Def Con from 2.00159e-005 to 2.00159e-005
Heightened Def Con from 2.0016e-005 to 2.0016e-005
Heightened Def Con from 2.0016e-005 to 2.0016e-005
Heightened Def Con from 2.0016e-005 +to 2.0016e-005
Heightened Def Con from 2.0016e-005 to 2.0016e-005
Heightened Def Con from 2.0016e-005 +to 2.0016e-005
Heightened Def Con from 2.0016e-005 to 2.0016e-005
Heightened Def Con from 2.0016e-005 to 2.0016e-005
Heightened Def Con from 2.0016e-005 to 2.0016e-005
Heightened Def Con from 2.00161e-005 to 2.00161e-005
Heightened Def Con from 2.00161e-005 +to 2.00161e-005
Heightened Def Con from 2.00161e-005 +to 2.00161e-005
Heightened Def Con from 2.00161e-005 +to 2.00161e-005
Heightened Def Con from 2.00161e-005 to 2.00161e-005
Heightened Def Con from 2.00161e-005 to 2.00161e-005
Heightened Def Con from 2.00161e-005 to 2.00161e-005
Heightened Def Con from 2.00161e-005 +to 2.00171e-005
Heightened Def Con from 2.00171e-005 to 2.00171e-005
Heightened Def Con from 2.00171e-005 +to 2.00171e-005
Heightened Def Con from 2.00171e-005 to 2.00171e-005
Heightened Def Con from 2.00171e-005 to 2.00171e-005
Heightened Def Con from 2.00171e-005 to 2.00171e-005
Heightened Def Con from 2.00171e-005 +++to 2.00171e-005
Heightened Def Con from 2.00172e-005 to 2.00172e-005
Heightened Def Con from 2.00172e-005 to 2.00172e-005
Heightened Def Con from 2.00172e-005 +++to 2.00182e-005
Heightened Def Con from 2.00202e-005 to 2.00202e-005
Heightened Def Con from 2.00202e-005 +to 2.00202e-005
Heightened Def Con from 2.00202e-005 to 2.00204e-005
Heightened Def Con from 2.00204e-005 +to 2.00204e-005
Heightened Def Con from 2.00204e-005 to 2.00204e-005
Heightened Def Con from 2.00204e-005 to 2.00204e-005
Heightened Def Con from 2.00204e-005 to 2.00204e-005
Heightened Def Con from 2.00204e-005 to 2.00204e-005
Heightened Def Con from 2.00205e-005 to 2.00205e-005
Heightened Def Con from 2.00206e-005 to 2.00206e-005
Heightened Def Con from 2.00206e-005 to 2.00206e-005
Heightened Def Con from 2.00206e-005 to 2.00206e-005
Heightened Def Con from 2.00207e-005 +to 2.00217e-005
Heightened Def Con from 2.00218e-005 +to 2.00218e-005
Heightened Def Con from 2.00218e-005 to 2.00218e-005
Heightened Def Con from 2.00218e-005 to 2.00218e-005
Heightened Def Con from 2.00218e-005 to 2.00218e-005
Heightened Def Con from 2.00218e-005 to 2.00218e-005
Heightened Def Con from 2.00218e-005 +to 2.00219e-005
Heightened Def Con from 2.00219e-005 to 2.00219e-005
Heightened Def Con from 2.00219e-005 +to 2.0022e-005
Heightened Def Con from 2.0022e-005 to 2.0022e-005
Heightened Def Con from 2.00221e-005 to 2.00221e-005
Heightened Def Con from 2.00221e-005 +to 2.00221e-005
Heightened Def Con from 2.00221e-005 to 2.00221e-005
Heightened Def Con from 2.00222e-005 to 2.00222e-005
Heightened Def Con from 2.00222e-005 to 2.00222e-005
Heightened Def Con from 2.00222e-005 to 2.00222e-005
Heightened Def Con from 2.00225e-005 to 2.00226e-005
Heightened Def Con from 2.00227e-005 to 2.00227e-005
Heightened Def Con from 2.00227e-005 to 2.00227e-005
Heightened Def Con from 2.00227e-005 +to 2.00227e-005
Heightened Def Con from 2.00227e-005 to 2.00227e-005
Heightened Def Con from 2.00227e-005 +to 2.00237e-005
Heightened Def Con from 2.00237e-005 to 2.00237e-005
Heightened Def Con from 2.00237e-005 +to 2.00237e-005
Heightened Def Con from 2.00238e-005 to 2.00238e-005
Heightened Def Con from 2.00238e-005 to 2.00238e-005
Heightened Def Con from 2.00238e-005 to 2.00238e-005
Heightened Def Con from 2.00238e-005 +to 2.00238e-005
Heightened Def Con from 2.00238e-005 to 2.00238e-005
Heightened Def Con from 2.00238e-005 +to 2.00238e-005
Heightened Def Con from 2.00239e-005 +to 2.00239e-005
Heightened Def Con from 2.00239e-005 +to 2.0024e-005
Heightened Def Con from 2.00241e-005 to 2.00241e-005
Heightened Def Con from 2.00241e-005 +to 2.00241e-005
Heightened Def Con from 2.00241e-005 to 2.00241e-005
Heightened Def Con from 2.00241e-005 to 2.00241e-005
Heightened Def Con from 2.00241e-005 +++to 2.00241e-005
Heightened Def Con from 2.00241e-005 to 2.00241e-005
Heightened Def Con from 2.00241e-005 to 2.00241e-005
Heightened Def Con from 2.00241e-005 to 2.00241e-005
Heightened Def Con from 2.00241e-005 to 2.00241e-005
Heightened Def Con from 2.00241e-005 to 2.00241e-005
Heightened Def Con from 2.00241e-005 +to 2.00241e-005
Heightened Def Con from 2.00241e-005 to 2.00241e-005
Heightened Def Con from 2.00241e-005 +to 2.00242e-005
Heightened Def Con from 2.00242e-005 to 2.00242e-005
Heightened Def Con from 2.00242e-005 +to 2.00242e-005
Heightened Def Con from 2.00242e-005 to 2.00242e-005
Heightened Def Con from 2.00242e-005 +to 2.00243e-005
Heightened Def Con from 2.00243e-005 to 2.00243e-005
Heightened Def Con from 2.00243e-005 to 2.00243e-005
Heightened Def Con from 2.00243e-005 to 2.00243e-005
Heightened Def Con from 2.00243e-005 to 2.00243e-005
Heightened Def Con from 2.00243e-005 +to 2.00244e-005
Heightened Def Con from 2.00244e-005 +to 2.00244e-005
Heightened Def Con from 2.00244e-005 to 2.00244e-005
Heightened Def Con from 2.00244e-005 to 2.00244e-005
Heightened Def Con from 2.00244e-005 to 2.00246e-005
Heightened Def Con from 2.00246e-005 +to 2.00246e-005
Heightened Def Con from 2.00246e-005 to 2.00246e-005
Heightened Def Con from 2.00246e-005 ++to 2.00246e-005
Heightened Def Con from 2.00246e-005 to 2.00247e-005
Heightened Def Con from 2.00247e-005 +to 2.00247e-005
Heightened Def Con from 2.00247e-005 to 2.00248e-005
Heightened Def Con from 2.00248e-005 to 2.00248e-005
Heightened Def Con from 2.00248e-005 to 2.00248e-005
Heightened Def Con from 2.00248e-005 to 2.00248e-005
Heightened Def Con from 2.00248e-005 to 2.00248e-005
Heightened Def Con from 2.00248e-005 to 2.00248e-005
Heightened Def Con from 2.00248e-005 +to 2.00248e-005
Heightened Def Con from 2.00249e-005 to 2.00249e-005
Heightened Def Con from 2.00249e-005 to 2.00249e-005
Heightened Def Con from 2.00249e-005 +++to 2.00249e-005
Heightened Def Con from 2.00249e-005 +to 2.00249e-005

Date: Sun Sep 11 23:33:48 2022
Total elapsed time: 55.060 seconds.

tnom = 27
temp = 27
method = modified trap
totiter = 1077444
traniter = 1077421
tranpoints = 103684
accept = 21985
rejected = 89212
matrix size = 167
fillins = 305
solver = Normal
Thread vector: 70.1/41.0[4] 6.1/4.3[4] 20.6/5.8[4] 0.9/2.3[1]  2592/500
Matrix Compiler1: 28.68 KB object code size  10.3/5.5/[2.3]
Matrix Compiler2: 20.18 KB object code size  3.7/4.2/[1.0]

