Circuit: * C:\Users\user\Desktop\FULL WAVE RECTIFIER - BRIDGE UNCONTROLLED -RC LOAD\FULL WAVE RECTIFIER.asc

.OP point found by inspection.

Date: Mon Aug 28 18:35:57 2023
Total elapsed time: 0.092 seconds.

tnom = 27
temp = 27
method = modified trap
totiter = 2388
traniter = 2388
tranpoints = 1094
accept = 1087
rejected = 7
matrix size = 9
fillins = 0
solver = Normal
Matrix Compiler1: 670 bytes object code size  0.1/0.1/[0.1]
Matrix Compiler2: 749 bytes object code size  0.1/0.2/[0.1]

