Circuit: * C:\Users\user\Desktop\LT SPICE SIMULATIONS\BUCK BOOST BB SEPIC CONVERTER\BUCK BOOST BB SEPIC CONVERTER.asc

Direct Newton iteration for .op point succeeded.
