Circuit: * C:\Users\user\Desktop\FULL WAVE RECTIFIER - BRIDGE UNCONTROLLED\FULL WAVE RECTIFIER.asc

.OP point found by inspection.

Date: Mon Aug 28 18:56:06 2023
Total elapsed time: 0.102 seconds.

tnom = 27
temp = 27
method = modified trap
totiter = 7238
traniter = 7238
tranpoints = 1615
accept = 1469
rejected = 146
matrix size = 29
fillins = 2
solver = Normal
Matrix Compiler1: 2.24 KB object code size  0.3/0.2/[0.1]
Matrix Compiler2: 2.40 KB object code size  0.2/0.3/[0.1]

