Circuit: * C:\Users\user\Desktop\FULL WAVE RECTIFIER - BRIDGE\FULL WAVE RECTIFIER.asc

u4:vigf: Missing value, assumed 0V @ DC
u4:viak: Missing value, assumed 0V @ DC
u3:vigf: Missing value, assumed 0V @ DC
u3:viak: Missing value, assumed 0V @ DC
u2:vigf: Missing value, assumed 0V @ DC
u2:viak: Missing value, assumed 0V @ DC
u1:vigf: Missing value, assumed 0V @ DC
u1:viak: Missing value, assumed 0V @ DC
.OP point found by inspection.
Heightened Def Con from 0.003 to 0.003
Heightened Def Con from 0.013 to 0.013
Heightened Def Con from 0.043 to 0.043

Date: Mon Aug 28 18:37:26 2023
Total elapsed time: 2.077 seconds.

tnom = 27
temp = 27
method = modified trap
totiter = 101370
traniter = 101370
tranpoints = 24982
accept = 18846
rejected = 6139
matrix size = 153
fillins = 112
solver = Normal
Thread vector: 23.7/10.9[3] 3.1/3.6[1] 7.0/3.7[3] 0.4/1.4[1]  2592/500
Matrix Compiler1: 11.75 KB object code size  4.9/2.9/[0.7]
Matrix Compiler2: 12.69 KB object code size  1.8/3.0/[0.5]

